confid_19
     RDKit          3D

 28 31  0  0  0  0  0  0  0  0999 V2000
   25.3300   26.2600   34.7600 N   0  0  0  0  0  0  0  0  0  0  0  0
   26.1200   25.9200   33.6900 C   0  0  0  0  0  0  0  0  0  0  0  0
   25.6300   25.1100   32.9400 O   0  0  0  0  0  0  0  0  0  0  0  0
   27.5200   26.3800   33.4600 C   0  0  0  0  0  0  0  0  0  0  0  0
   28.1600   26.6300   34.6100 N   0  0  0  0  0  0  0  0  0  0  0  0
   29.4800   26.8500   34.5700 N   0  0  0  0  0  0  0  0  0  0  0  0
   30.1900   26.7800   33.4400 C   0  0  0  0  0  0  0  0  0  0  0  0
   31.5600   27.0500   33.5000 C   0  0  0  0  0  0  0  0  0  0  0  0
   32.2700   27.2400   32.3100 C   0  0  0  0  0  0  0  0  0  0  0  0
   31.6100   27.2500   31.0800 C   0  0  0  0  0  0  0  0  0  0  0  0
   30.2700   26.8700   31.0600 C   0  0  0  0  0  0  0  0  0  0  0  0
   29.5100   26.6900   32.2300 C   0  0  0  0  0  0  0  0  0  0  0  0
   28.1400   26.4100   32.2000 C   0  0  0  0  0  0  0  0  0  0  0  0
   27.4300   26.1300   31.0500 N   0  0  0  0  0  0  0  0  0  0  0  0
   26.5264   27.1393   30.4869 C   0  0  0  0  0  0  0  0  0  0  0  0
   26.7372   27.2380   28.9726 C   0  0  0  0  0  0  0  0  0  0  0  0
   26.8084   25.9069   28.3478 N   0  0  0  0  0  0  0  0  0  0  0  0
   26.7124   25.7973   26.9196 C   0  0  0  0  0  0  0  0  0  0  0  0
   25.8215   25.0666   26.4098 O   0  0  0  0  0  0  0  0  0  0  0  0
   27.6449   26.5098   26.0335 C   0  0  0  0  0  0  0  0  0  0  0  0
   27.4496   26.6985   24.7532 O   0  0  0  0  0  0  0  0  0  0  0  0
   28.5003   27.3457   24.3017 C   0  0  0  0  0  0  0  0  0  0  0  0
   28.6788   27.7364   22.8703 C   0  0  0  0  0  0  0  0  0  0  0  0
   29.2826   26.5861   22.0741 C   0  0  0  0  0  0  0  0  0  0  0  0
   29.4202   27.5875   25.2596 N   0  0  0  0  0  0  0  0  0  0  0  0
   28.8674   27.0534   26.3653 C   0  0  0  0  0  0  0  0  0  0  0  0
   26.6916   24.6952   29.1674 C   0  0  0  0  0  0  0  0  0  0  0  0
   27.5800   24.8147   30.4094 C   0  0  0  0  0  0  0  0  0  0  0  0
  1  2  1  0
  2  3  2  0
  2  4  1  0
  4  5  2  0
  5  6  1  0
  6  7  2  0
  7  8  1  0
  8  9  2  0
  9 10  1  0
 10 11  2  0
 11 12  1  0
 12 13  2  0
 13 14  1  0
 14 15  1  0
 15 16  1  0
 16 17  1  0
 17 18  1  0
 18 19  2  0
 18 20  1  0
 20 21  1  0
 21 22  1  0
 22 23  1  0
 23 24  1  0
 22 25  2  0
 25 26  1  0
 17 27  1  0
 27 28  1  0
 13  4  1  0
 28 14  1  0
 12  7  1  0
 26 20  2  0
M  END
>  <AAScore>  (1) 
-0.6159053709854957

>  <RootName>  (1) 
./4ZLY/04_DeltaGEst/trajectory_03/rank_01/lead_0324

$$$$
