confid_15
     RDKit          3D

 27 30  0  0  0  0  0  0  0  0999 V2000
   25.3300   26.2600   34.7600 N   0  0  0  0  0  0  0  0  0  0  0  0
   26.1200   25.9200   33.6900 C   0  0  0  0  0  0  0  0  0  0  0  0
   25.6300   25.1100   32.9400 O   0  0  0  0  0  0  0  0  0  0  0  0
   27.5200   26.3800   33.4600 C   0  0  0  0  0  0  0  0  0  0  0  0
   28.1600   26.6300   34.6100 N   0  0  0  0  0  0  0  0  0  0  0  0
   29.4800   26.8500   34.5700 N   0  0  0  0  0  0  0  0  0  0  0  0
   30.1900   26.7800   33.4400 C   0  0  0  0  0  0  0  0  0  0  0  0
   31.5600   27.0500   33.5000 C   0  0  0  0  0  0  0  0  0  0  0  0
   32.2700   27.2400   32.3100 C   0  0  0  0  0  0  0  0  0  0  0  0
   31.6100   27.2500   31.0800 C   0  0  0  0  0  0  0  0  0  0  0  0
   30.2700   26.8700   31.0600 C   0  0  0  0  0  0  0  0  0  0  0  0
   29.5100   26.6900   32.2300 C   0  0  0  0  0  0  0  0  0  0  0  0
   28.1400   26.4100   32.2000 C   0  0  0  0  0  0  0  0  0  0  0  0
   27.4300   26.1300   31.0500 N   0  0  0  0  0  0  0  0  0  0  0  0
   26.5201   27.1359   30.4933 C   0  0  0  0  0  0  0  0  0  0  0  0
   26.6353   27.1519   28.9672 C   0  0  0  0  0  0  0  0  0  0  0  0
   26.5373   25.7956   28.4004 N   0  0  0  0  0  0  0  0  0  0  0  0
   26.2747   25.6349   26.9891 C   0  0  0  0  0  0  0  0  0  0  0  0
   25.3633   24.6660   26.5376 C   0  0  0  0  0  0  0  0  0  0  0  0
   25.1060   24.5158   25.1743 C   0  0  0  0  0  0  0  0  0  0  0  0
   25.7488   25.3268   24.2348 C   0  0  0  0  0  0  0  0  0  0  0  0
   25.4555   25.1345   22.8830 O   0  0  0  0  0  0  0  0  0  0  0  0
   26.6666   26.3085   24.6696 C   0  0  0  0  0  0  0  0  0  0  0  0
   27.3778   27.1969   23.6861 C   0  0  0  0  0  0  0  0  0  0  0  0
   26.9197   26.4533   26.0450 C   0  0  0  0  0  0  0  0  0  0  0  0
   26.5520   24.6214   29.2872 C   0  0  0  0  0  0  0  0  0  0  0  0
   27.5671   24.8095   30.4198 C   0  0  0  0  0  0  0  0  0  0  0  0
  1  2  1  0
  2  3  2  0
  2  4  1  0
  4  5  2  0
  5  6  1  0
  6  7  2  0
  7  8  1  0
  8  9  2  0
  9 10  1  0
 10 11  2  0
 11 12  1  0
 12 13  2  0
 13 14  1  0
 14 15  1  0
 15 16  1  0
 16 17  1  0
 17 18  1  0
 18 19  2  0
 19 20  1  0
 20 21  2  0
 21 22  1  0
 21 23  1  0
 23 24  1  0
 23 25  2  0
 17 26  1  0
 26 27  1  0
 13  4  1  0
 27 14  1  0
 12  7  1  0
 25 18  1  0
M  END
>  <AAScore>  (1) 
3.0300808845431324

>  <RootName>  (1) 
./4ZLY/04_DeltaGEst/trajectory_03/rank_01/lead_0350

$$$$
