confid_7
     RDKit          3D

 29 32  0  0  0  0  0  0  0  0999 V2000
   24.6900   26.1200   35.5300 N   0  0  0  0  0  0  0  0  0  0  0  0
   25.6600   25.6700   34.6600 C   0  0  0  0  0  0  0  0  0  0  0  0
   25.2400   25.0100   33.7200 O   0  0  0  0  0  0  0  0  0  0  0  0
   27.0300   26.2200   34.8800 C   0  0  0  0  0  0  0  0  0  0  0  0
   27.3500   26.7300   36.0700 N   0  0  0  0  0  0  0  0  0  0  0  0
   28.5700   27.1800   36.3300 N   0  0  0  0  0  0  0  0  0  0  0  0
   29.5300   27.1100   35.3900 C   0  0  0  0  0  0  0  0  0  0  0  0
   30.8300   27.5700   35.6500 C   0  0  0  0  0  0  0  0  0  0  0  0
   31.8500   27.5400   34.6900 C   0  0  0  0  0  0  0  0  0  0  0  0
   31.5100   27.1200   33.4000 C   0  0  0  0  0  0  0  0  0  0  0  0
   30.2200   26.6300   33.1100 C   0  0  0  0  0  0  0  0  0  0  0  0
   29.2400   26.6600   34.1000 C   0  0  0  0  0  0  0  0  0  0  0  0
   27.9300   26.2600   33.8100 C   0  0  0  0  0  0  0  0  0  0  0  0
   27.5200   25.7100   32.6100 N   0  0  0  0  0  0  0  0  0  0  0  0
   31.1562   28.0604   36.9599 N   0  0  0  0  0  0  0  0  0  0  0  0
   31.8473   27.1607   37.8967 C   0  0  0  0  0  0  0  0  0  0  0  0
   30.9075   26.7147   39.0192 C   0  0  0  0  0  0  0  0  0  0  0  0
   30.5396   27.8200   39.9776 C   0  0  0  0  0  0  0  0  0  0  0  0
   30.6582   29.1954   39.8085 C   0  0  0  0  0  0  0  0  0  0  0  0
   30.2106   29.8246   40.9122 N   0  0  0  0  0  0  0  0  0  0  0  0
   29.7865   28.9056   41.7642 N   0  0  0  0  0  0  0  0  0  0  0  0
   29.2573   29.2396   43.0839 C   0  0  0  0  0  0  0  0  0  0  0  0
   29.9375   27.6728   41.2225 C   0  0  0  0  0  0  0  0  0  0  0  0
   29.6227   26.3681   41.9142 C   0  0  0  0  0  0  0  0  0  0  0  0
   30.7434   25.9315   42.5965 F   0  0  0  0  0  0  0  0  0  0  0  0
   28.5796   26.5218   42.8086 F   0  0  0  0  0  0  0  0  0  0  0  0
   29.2503   25.4066   40.9904 F   0  0  0  0  0  0  0  0  0  0  0  0
   31.2770   29.9262   38.6533 C   0  0  0  0  0  0  0  0  0  0  0  0
   30.7504   29.4346   37.2988 C   0  0  0  0  0  0  0  0  0  0  0  0
  1  2  1  0
  2  3  2  0
  2  4  1  0
  4  5  2  0
  5  6  1  0
  6  7  2  0
  7  8  1  0
  8  9  2  0
  9 10  1  0
 10 11  2  0
 11 12  1  0
 12 13  2  0
 13 14  1  0
  8 15  1  0
 15 16  1  0
 16 17  1  0
 17 18  1  0
 18 19  1  0
 19 20  2  0
 20 21  1  0
 21 22  1  0
 21 23  1  0
 23 24  1  0
 24 25  1  0
 24 26  1  0
 24 27  1  0
 19 28  1  0
 28 29  1  0
 13  4  1  0
 29 15  1  0
 12  7  1  0
 23 18  2  0
M  END
>  <AAScore>  (1) 
5.702584944071625

>  <RootName>  (1) 
./4ZLY/04_DeltaGEst/trajectory_02/rank_01/lead_0181

$$$$
