confid_6
     RDKit          3D

 31 35  0  0  0  0  0  0  0  0999 V2000
   24.5700   26.8800   35.5900 N   0  0  0  0  0  0  0  0  0  0  0  0
   25.5000   26.4000   34.6900 C   0  0  0  0  0  0  0  0  0  0  0  0
   25.1700   25.5200   33.9100 O   0  0  0  0  0  0  0  0  0  0  0  0
   26.8400   27.0200   34.7400 C   0  0  0  0  0  0  0  0  0  0  0  0
   27.3800   27.2800   35.9400 N   0  0  0  0  0  0  0  0  0  0  0  0
   28.6200   27.7400   36.0300 N   0  0  0  0  0  0  0  0  0  0  0  0
   29.3800   28.0000   34.9600 C   0  0  0  0  0  0  0  0  0  0  0  0
   30.6700   28.5000   35.1300 C   0  0  0  0  0  0  0  0  0  0  0  0
   31.5400   28.6100   34.0300 C   0  0  0  0  0  0  0  0  0  0  0  0
   31.0900   28.2200   32.7700 C   0  0  0  0  0  0  0  0  0  0  0  0
   29.8000   27.7000   32.6000 C   0  0  0  0  0  0  0  0  0  0  0  0
   28.9600   27.5500   33.7100 C   0  0  0  0  0  0  0  0  0  0  0  0
   27.6600   27.0300   33.5900 C   0  0  0  0  0  0  0  0  0  0  0  0
   27.1600   26.7400   32.3400 N   0  0  0  0  0  0  0  0  0  0  0  0
   23.2240   26.3818   35.6443 C   0  0  0  0  0  0  0  0  0  0  0  0
   22.7931   25.9029   36.7732 N   0  0  0  0  0  0  0  0  0  0  0  0
   21.5525   25.2900   37.1791 C   0  0  0  0  0  0  0  0  0  0  0  0
   20.5503   24.8064   36.4026 C   0  0  0  0  0  0  0  0  0  0  0  0
   20.3787   25.0282   34.9013 C   0  0  2  0  0  0  0  0  0  0  0  0
   19.5559   23.8790   34.2950 C   0  0  0  0  0  0  0  0  0  0  0  0
   18.3037   23.7321   35.0397 N   0  0  0  0  0  0  0  0  0  0  0  0
   17.0157   23.8376   34.3488 C   0  0  0  0  0  0  0  0  0  0  0  0
   16.4136   22.4448   34.1271 C   0  0  0  0  0  0  0  0  0  0  0  0
   16.6316   21.5533   35.2874 N   0  0  0  0  0  0  0  0  0  0  0  0
   15.9493   20.2687   35.0576 C   0  0  0  0  0  0  0  0  0  0  0  0
   16.1712   22.1818   36.5471 C   0  0  0  0  0  0  0  0  0  0  0  0
   17.3454   22.8345   37.2984 C   0  0  0  0  0  0  0  0  0  0  0  0
   18.3788   23.5957   36.4753 C   0  0  0  0  0  0  0  0  0  0  0  0
   19.4448   24.1000   37.1178 C   0  0  0  0  0  0  0  0  0  0  0  0
   21.6851   25.1764   34.1159 C   0  0  0  0  0  0  0  0  0  0  0  0
   22.3542   26.5042   34.4356 C   0  0  0  0  0  0  0  0  0  0  0  0
  1  2  1  0
  2  3  2  0
  2  4  1  0
  4  5  2  0
  5  6  1  0
  6  7  2  0
  7  8  1  0
  8  9  2  0
  9 10  1  0
 10 11  2  0
 11 12  1  0
 12 13  2  0
 13 14  1  0
  1 15  1  0
 15 16  2  0
 16 17  1  0
 17 18  2  0
 18 19  1  0
 19 20  1  6
 20 21  1  0
 21 22  1  0
 22 23  1  0
 23 24  1  0
 24 25  1  0
 24 26  1  0
 26 27  1  0
 27 28  1  0
 28 29  2  0
 19 30  1  0
 30 31  1  0
 13  4  1  0
 31 15  1  0
 12  7  1  0
 29 18  1  0
 28 21  1  0
M  END
>  <AAScore>  (1) 
2492.5590738589053

>  <RootName>  (1) 
./4ZLY/04_DeltaGEst/trajectory_05/rank_00/lead_0480

$$$$
