confid_19
     RDKit          3D

 29 33  0  0  0  0  0  0  0  0999 V2000
   24.4800   26.1000   36.1300 N   0  0  0  0  0  0  0  0  0  0  0  0
   25.2500   26.2500   34.9900 C   0  0  0  0  0  0  0  0  0  0  0  0
   24.7400   25.7600   33.9900 O   0  0  0  0  0  0  0  0  0  0  0  0
   26.5900   26.8900   34.9600 C   0  0  0  0  0  0  0  0  0  0  0  0
   27.0600   27.2400   36.1600 N   0  0  0  0  0  0  0  0  0  0  0  0
   28.3000   27.7100   36.2400 N   0  0  0  0  0  0  0  0  0  0  0  0
   29.0500   27.9600   35.1500 C   0  0  0  0  0  0  0  0  0  0  0  0
   30.3400   28.4900   35.2600 C   0  0  0  0  0  0  0  0  0  0  0  0
   31.1100   28.8200   34.1400 C   0  0  0  0  0  0  0  0  0  0  0  0
   30.5200   28.6700   32.8800 C   0  0  0  0  0  0  0  0  0  0  0  0
   29.2900   28.0200   32.7700 C   0  0  0  0  0  0  0  0  0  0  0  0
   28.5200   27.7100   33.8900 C   0  0  0  0  0  0  0  0  0  0  0  0
   27.2700   27.0800   33.7600 C   0  0  0  0  0  0  0  0  0  0  0  0
   26.7500   26.8800   32.4900 N   0  0  0  0  0  0  0  0  0  0  0  0
   23.5833   25.0046   36.3546 C   0  0  0  0  0  0  0  0  0  0  0  0
   22.5724   24.8006   37.1858 C   0  0  0  0  0  0  0  0  0  0  0  0
   22.3804   23.4704   36.6237 C   0  0  0  0  0  0  0  0  0  0  0  0
   21.4501   22.3354   36.8143 C   0  0  0  0  0  0  0  0  0  0  0  0
   22.1264   21.0468   36.5662 N   0  0  0  0  0  0  0  0  0  0  0  0
   23.1946   20.7599   37.5421 C   0  0  0  0  0  0  0  0  0  0  0  0
   22.5288   20.7304   35.1666 C   0  0  1  0  0  0  0  0  0  0  0  0
   21.3397   20.6091   34.1968 C   0  0  0  0  0  0  0  0  0  0  0  0
   21.8104   20.2519   32.7599 C   0  0  0  0  0  0  0  0  0  0  0  0
   23.2435   19.8723   32.7245 N   0  0  0  0  0  0  0  0  0  0  0  0
   23.6257   19.4440   31.3709 C   0  0  0  0  0  0  0  0  0  0  0  0
   24.1031   20.9953   33.1678 C   0  0  0  0  0  0  0  0  0  0  0  0
   23.6235   21.5617   34.4900 C   0  0  0  0  0  0  0  0  0  0  0  0
   24.0356   22.8044   34.8125 C   0  0  0  0  0  0  0  0  0  0  0  0
   23.4030   23.6500   35.8209 C   0  0  0  0  0  0  0  0  0  0  0  0
  1  2  1  0
  2  3  2  0
  2  4  1  0
  4  5  2  0
  5  6  1  0
  6  7  2  0
  7  8  1  0
  8  9  2  0
  9 10  1  0
 10 11  2  0
 11 12  1  0
 12 13  2  0
 13 14  1  0
  1 15  1  0
 15 16  2  0
 16 17  1  0
 17 18  1  0
 18 19  1  0
 19 20  1  0
 19 21  1  0
 21 22  1  6
 22 23  1  0
 23 24  1  0
 24 25  1  0
 24 26  1  0
 26 27  1  0
 27 28  2  0
 28 29  1  0
 13  4  1  0
 29 15  1  0
 12  7  1  0
 29 17  2  0
 27 21  1  0
M  END
>  <AAScore>  (1) 
1057.3931967840265

>  <RootName>  (1) 
./4ZLY/04_DeltaGEst/trajectory_00/rank_00/lead_0165

$$$$
