confid_6
     RDKit          3D

 29 32  0  0  0  0  0  0  0  0999 V2000
   24.2000   26.2400   35.6900 N   0  0  0  0  0  0  0  0  0  0  0  0
   24.8500   26.2800   34.4800 C   0  0  0  0  0  0  0  0  0  0  0  0
   24.3100   25.7400   33.5400 O   0  0  0  0  0  0  0  0  0  0  0  0
   26.1800   26.9700   34.4700 C   0  0  0  0  0  0  0  0  0  0  0  0
   26.6500   27.6000   35.5500 N   0  0  0  0  0  0  0  0  0  0  0  0
   27.7900   28.2700   35.6200 N   0  0  0  0  0  0  0  0  0  0  0  0
   28.5400   28.3000   34.5100 C   0  0  0  0  0  0  0  0  0  0  0  0
   29.7700   28.9400   34.5600 C   0  0  0  0  0  0  0  0  0  0  0  0
   30.7000   28.8900   33.5000 C   0  0  0  0  0  0  0  0  0  0  0  0
   30.3700   28.1400   32.3700 C   0  0  0  0  0  0  0  0  0  0  0  0
   29.1200   27.5200   32.2800 C   0  0  0  0  0  0  0  0  0  0  0  0
   28.2100   27.6100   33.3300 C   0  0  0  0  0  0  0  0  0  0  0  0
   26.9700   26.9700   33.3100 C   0  0  0  0  0  0  0  0  0  0  0  0
   26.5300   26.2400   32.2200 N   0  0  0  0  0  0  0  0  0  0  0  0
   23.1735   25.2839   36.0219 C   0  0  0  0  0  0  0  0  0  0  0  0
   22.8115   24.2602   35.2243 N   0  0  0  0  0  0  0  0  0  0  0  0
   21.8142   23.6485   35.8973 C   0  0  0  0  0  0  0  0  0  0  0  0
   21.1125   22.4378   35.3441 C   0  0  0  0  0  0  0  0  0  0  0  0
   19.6261   22.6906   35.0538 C   0  0  0  0  0  0  0  0  0  0  0  0
   18.8210   22.2939   36.2329 N   0  0  0  0  0  0  0  0  0  0  0  0
   18.1369   23.4310   36.8835 C   0  0  0  0  0  0  0  0  0  0  0  0
   19.1101   24.4997   37.4180 C   0  0  0  0  0  0  0  0  0  0  0  0
   20.4231   23.9263   37.9881 C   0  0  0  0  0  0  0  0  0  0  0  0
   21.5436   24.2365   37.0901 N   0  0  0  0  0  0  0  0  0  0  0  0
   22.4087   25.2747   37.1769 C   0  0  0  0  0  0  0  0  0  0  0  0
   22.4559   26.2929   38.2909 C   0  0  0  0  0  0  0  0  0  0  0  0
   21.4879   27.4440   38.0323 C   0  0  0  0  0  0  0  0  0  0  0  0
   21.8260   28.1061   36.8654 F   0  0  0  0  0  0  0  0  0  0  0  0
   17.8457   21.2460   35.8898 C   0  0  0  0  0  0  0  0  0  0  0  0
  1  2  1  0
  2  3  2  0
  2  4  1  0
  4  5  2  0
  5  6  1  0
  6  7  2  0
  7  8  1  0
  8  9  2  0
  9 10  1  0
 10 11  2  0
 11 12  1  0
 12 13  2  0
 13 14  1  0
  1 15  1  0
 15 16  1  0
 16 17  2  0
 17 18  1  0
 18 19  1  0
 19 20  1  0
 20 21  1  0
 21 22  1  0
 22 23  1  0
 23 24  1  0
 24 25  1  0
 25 26  1  0
 26 27  1  0
 27 28  1  0
 20 29  1  0
 13  4  1  0
 25 15  2  0
 12  7  1  0
 24 17  1  0
M  END
>  <AAScore>  (1) 
1668.3814758242409

>  <RootName>  (1) 
./4ZLY/04_DeltaGEst/trajectory_04/rank_00/lead_0271

$$$$
