confid_15
     RDKit          3D

 30 33  0  0  0  0  0  0  0  0999 V2000
   24.2000   26.2400   35.6900 N   0  0  0  0  0  0  0  0  0  0  0  0
   24.8500   26.2800   34.4800 C   0  0  0  0  0  0  0  0  0  0  0  0
   24.3100   25.7400   33.5400 O   0  0  0  0  0  0  0  0  0  0  0  0
   26.1800   26.9700   34.4700 C   0  0  0  0  0  0  0  0  0  0  0  0
   26.6500   27.6000   35.5500 N   0  0  0  0  0  0  0  0  0  0  0  0
   27.7900   28.2700   35.6200 N   0  0  0  0  0  0  0  0  0  0  0  0
   28.5400   28.3000   34.5100 C   0  0  0  0  0  0  0  0  0  0  0  0
   29.7700   28.9400   34.5600 C   0  0  0  0  0  0  0  0  0  0  0  0
   30.7000   28.8900   33.5000 C   0  0  0  0  0  0  0  0  0  0  0  0
   30.3700   28.1400   32.3700 C   0  0  0  0  0  0  0  0  0  0  0  0
   29.1200   27.5200   32.2800 C   0  0  0  0  0  0  0  0  0  0  0  0
   28.2100   27.6100   33.3300 C   0  0  0  0  0  0  0  0  0  0  0  0
   26.9700   26.9700   33.3100 C   0  0  0  0  0  0  0  0  0  0  0  0
   26.5300   26.2400   32.2200 N   0  0  0  0  0  0  0  0  0  0  0  0
   30.1361   29.6759   35.7403 N   0  0  0  0  0  0  0  0  0  0  0  0
   29.5125   30.9959   35.9584 C   0  0  0  0  0  0  0  0  0  0  0  0
   30.1011   31.7737   37.1509 C   0  0  0  0  0  0  0  0  0  0  0  0
   31.5802   32.1783   36.9800 C   0  0  0  0  0  0  0  0  0  0  0  0
   32.3207   31.2793   36.0826 N   0  0  0  0  0  0  0  0  0  0  0  0
   32.7349   31.7560   34.7851 C   0  0  0  0  0  0  0  0  0  0  0  0
   31.9779   32.5317   34.1397 O   0  0  0  0  0  0  0  0  0  0  0  0
   34.0343   31.3637   34.1930 C   0  0  0  0  0  0  0  0  0  0  0  0
   34.1817   31.2916   32.7968 C   0  0  0  0  0  0  0  0  0  0  0  0
   35.4082   30.9271   32.2333 C   0  0  0  0  0  0  0  0  0  0  0  0
   36.5012   30.6405   33.0568 C   0  0  0  0  0  0  0  0  0  0  0  0
   38.0392   30.1838   32.3478 Cl  0  0  0  0  0  0  0  0  0  0  0  0
   36.3677   30.7228   34.4461 C   0  0  0  0  0  0  0  0  0  0  0  0
   35.1424   31.0862   35.0130 C   0  0  0  0  0  0  0  0  0  0  0  0
   32.5136   29.8683   36.4541 C   0  0  0  0  0  0  0  0  0  0  0  0
   31.1780   29.1289   36.6238 C   0  0  0  0  0  0  0  0  0  0  0  0
  1  2  1  0
  2  3  2  0
  2  4  1  0
  4  5  2  0
  5  6  1  0
  6  7  2  0
  7  8  1  0
  8  9  2  0
  9 10  1  0
 10 11  2  0
 11 12  1  0
 12 13  2  0
 13 14  1  0
  8 15  1  0
 15 16  1  0
 16 17  1  0
 17 18  1  0
 18 19  1  0
 19 20  1  0
 20 21  2  0
 20 22  1  0
 22 23  2  0
 23 24  1  0
 24 25  2  0
 25 26  1  0
 25 27  1  0
 27 28  2  0
 19 29  1  0
 29 30  1  0
 13  4  1  0
 30 15  1  0
 12  7  1  0
 28 22  1  0
M  END
>  <AAScore>  (1) 
-7.102178609808681

>  <RootName>  (1) 
./4ZLY/04_DeltaGEst/trajectory_04/rank_01/lead_0446

$$$$
