confid_0
     RDKit          3D

 29 33  0  0  0  0  0  0  0  0999 V2000
   24.6900   26.1200   35.5300 N   0  0  0  0  0  0  0  0  0  0  0  0
   25.6600   25.6700   34.6600 C   0  0  0  0  0  0  0  0  0  0  0  0
   25.2400   25.0100   33.7200 O   0  0  0  0  0  0  0  0  0  0  0  0
   27.0300   26.2200   34.8800 C   0  0  0  0  0  0  0  0  0  0  0  0
   27.3500   26.7300   36.0700 N   0  0  0  0  0  0  0  0  0  0  0  0
   28.5700   27.1800   36.3300 N   0  0  0  0  0  0  0  0  0  0  0  0
   29.5300   27.1100   35.3900 C   0  0  0  0  0  0  0  0  0  0  0  0
   30.8300   27.5700   35.6500 C   0  0  0  0  0  0  0  0  0  0  0  0
   31.8500   27.5400   34.6900 C   0  0  0  0  0  0  0  0  0  0  0  0
   31.5100   27.1200   33.4000 C   0  0  0  0  0  0  0  0  0  0  0  0
   30.2200   26.6300   33.1100 C   0  0  0  0  0  0  0  0  0  0  0  0
   29.2400   26.6600   34.1000 C   0  0  0  0  0  0  0  0  0  0  0  0
   27.9300   26.2600   33.8100 C   0  0  0  0  0  0  0  0  0  0  0  0
   27.5200   25.7100   32.6100 N   0  0  0  0  0  0  0  0  0  0  0  0
   23.4021   25.5042   35.7515 C   0  0  0  0  0  0  0  0  0  0  0  0
   23.0376   24.4555   35.0547 N   0  0  0  0  0  0  0  0  0  0  0  0
   21.7853   23.7770   35.1981 C   0  0  0  0  0  0  0  0  0  0  0  0
   21.4513   23.2589   36.3712 C   0  0  0  0  0  0  0  0  0  0  0  0
   20.2564   22.7332   37.1100 C   0  0  0  0  0  0  0  0  0  0  0  0
   20.9044   22.6457   38.3431 O   0  0  0  0  0  0  0  0  0  0  0  0
   22.0823   23.0492   37.7179 C   0  0  2  0  0  0  0  0  0  0  0  0
   22.7073   24.3130   38.3467 C   0  0  0  0  0  0  0  0  0  0  0  0
   22.0889   25.6159   37.8680 C   0  0  0  0  0  0  0  0  0  0  0  0
   22.4638   26.1854   36.6866 C   0  0  0  0  0  0  0  0  0  0  0  0
   22.0299   27.4586   36.2628 O   0  0  0  0  0  0  0  0  0  0  0  0
   21.5811   28.5463   37.0804 C   0  0  0  0  0  0  0  0  0  0  0  0
   22.3438   28.6216   38.4079 C   0  0  0  0  0  0  0  0  0  0  0  0
   21.5732   27.6112   39.7277 S   0  0  0  0  0  0  0  0  0  0  0  0
   20.9895   26.2008   38.7143 C   0  0  0  0  0  0  0  0  0  0  0  0
  1  2  1  0
  2  3  2  0
  2  4  1  0
  4  5  2  0
  5  6  1  0
  6  7  2  0
  7  8  1  0
  8  9  2  0
  9 10  1  0
 10 11  2  0
 11 12  1  0
 12 13  2  0
 13 14  1  0
  1 15  1  0
 15 16  2  0
 16 17  1  0
 17 18  2  0
 18 19  1  0
 19 20  1  0
 20 21  1  0
 21 22  1  1
 22 23  1  0
 23 24  2  0
 24 25  1  0
 25 26  1  0
 26 27  1  0
 27 28  1  0
 28 29  1  0
 13  4  1  0
 24 15  1  0
 12  7  1  0
 21 18  1  0
 29 23  1  0
M  END
>  <AAScore>  (1) 
5754.265412287932

>  <RootName>  (1) 
./4ZLY/04_DeltaGEst/trajectory_02/rank_00/lead_0116

$$$$
