confid_2
     RDKit          3D

 28 30  0  0  0  0  0  0  0  0999 V2000
   24.5500   26.3900   36.2500 N   0  0  0  0  0  0  0  0  0  0  0  0
   25.6000   26.1300   35.4000 C   0  0  0  0  0  0  0  0  0  0  0  0
   25.4300   25.4300   34.4200 O   0  0  0  0  0  0  0  0  0  0  0  0
   26.9800   26.6300   35.7100 C   0  0  0  0  0  0  0  0  0  0  0  0
   27.3200   26.8200   36.9800 N   0  0  0  0  0  0  0  0  0  0  0  0
   28.4700   27.4000   37.3100 N   0  0  0  0  0  0  0  0  0  0  0  0
   29.4000   27.6300   36.3700 C   0  0  0  0  0  0  0  0  0  0  0  0
   30.6600   28.0500   36.8000 C   0  0  0  0  0  0  0  0  0  0  0  0
   31.5700   28.3600   35.7800 C   0  0  0  0  0  0  0  0  0  0  0  0
   31.3700   28.1000   34.4300 C   0  0  0  0  0  0  0  0  0  0  0  0
   30.1200   27.5900   34.0500 C   0  0  0  0  0  0  0  0  0  0  0  0
   29.1500   27.3400   35.0300 C   0  0  0  0  0  0  0  0  0  0  0  0
   27.8800   26.8900   34.6600 C   0  0  0  0  0  0  0  0  0  0  0  0
   27.4800   26.6100   33.3700 N   0  0  0  0  0  0  0  0  0  0  0  0
   23.2384   25.7336   36.1315 C   0  0  0  0  0  0  0  0  0  0  0  0
   23.3250   24.2825   36.6386 C   0  0  0  0  0  0  0  0  0  0  0  0
   23.7585   24.2511   38.1137 C   0  0  0  0  0  0  0  0  0  0  0  0
   23.1661   25.3639   38.8752 N   0  0  0  0  0  0  0  0  0  0  0  0
   23.7672   25.8186   40.1069 C   0  0  0  0  0  0  0  0  0  0  0  0
   23.5678   27.0008   40.5004 O   0  0  0  0  0  0  0  0  0  0  0  0
   24.6729   24.9316   40.9206 C   0  0  0  0  0  0  0  0  0  0  0  0
   24.2929   24.9695   42.3771 C   0  0  0  0  0  0  0  0  0  0  0  0
   24.9941   25.6678   43.1599 O   0  0  0  0  0  0  0  0  0  0  0  0
   23.1406   24.2615   42.8864 N   0  0  0  0  0  0  0  0  0  0  0  0
   22.3052   23.4399   42.0026 C   0  0  0  0  0  0  0  0  0  0  0  0
   22.8105   24.3738   44.3111 C   0  0  0  0  0  0  0  0  0  0  0  0
   21.9510   26.0107   38.3574 C   0  0  0  0  0  0  0  0  0  0  0  0
   22.1604   26.5218   36.9183 C   0  0  0  0  0  0  0  0  0  0  0  0
  1  2  1  0
  2  3  2  0
  2  4  1  0
  4  5  2  0
  5  6  1  0
  6  7  2  0
  7  8  1  0
  8  9  2  0
  9 10  1  0
 10 11  2  0
 11 12  1  0
 12 13  2  0
 13 14  1  0
  1 15  1  0
 15 16  1  0
 16 17  1  0
 17 18  1  0
 18 19  1  0
 19 20  2  0
 19 21  1  0
 21 22  1  0
 22 23  2  0
 22 24  1  0
 24 25  1  0
 24 26  1  0
 18 27  1  0
 27 28  1  0
 13  4  1  0
 28 15  1  0
 12  7  1  0
M  END
>  <AAScore>  (1) 
94.38525236837782

>  <RootName>  (1) 
./4ZLY/04_DeltaGEst/trajectory_01/rank_00/lead_0262

$$$$
