confid_19
     RDKit          3D

 29 32  0  0  0  0  0  0  0  0999 V2000
   24.5700   26.8800   35.5900 N   0  0  0  0  0  0  0  0  0  0  0  0
   25.5000   26.4000   34.6900 C   0  0  0  0  0  0  0  0  0  0  0  0
   25.1700   25.5200   33.9100 O   0  0  0  0  0  0  0  0  0  0  0  0
   26.8400   27.0200   34.7400 C   0  0  0  0  0  0  0  0  0  0  0  0
   27.3800   27.2800   35.9400 N   0  0  0  0  0  0  0  0  0  0  0  0
   28.6200   27.7400   36.0300 N   0  0  0  0  0  0  0  0  0  0  0  0
   29.3800   28.0000   34.9600 C   0  0  0  0  0  0  0  0  0  0  0  0
   30.6700   28.5000   35.1300 C   0  0  0  0  0  0  0  0  0  0  0  0
   31.5400   28.6100   34.0300 C   0  0  0  0  0  0  0  0  0  0  0  0
   31.0900   28.2200   32.7700 C   0  0  0  0  0  0  0  0  0  0  0  0
   29.8000   27.7000   32.6000 C   0  0  0  0  0  0  0  0  0  0  0  0
   28.9600   27.5500   33.7100 C   0  0  0  0  0  0  0  0  0  0  0  0
   27.6600   27.0300   33.5900 C   0  0  0  0  0  0  0  0  0  0  0  0
   27.1600   26.7400   32.3400 N   0  0  0  0  0  0  0  0  0  0  0  0
   23.1941   26.4533   35.6295 C   0  0  0  0  0  0  0  0  0  0  0  0
   22.5770   25.8541   34.5851 N   0  0  0  0  0  0  0  0  0  0  0  0
   21.3161   25.6474   35.0120 C   0  0  0  0  0  0  0  0  0  0  0  0
   21.1880   26.1294   36.2948 C   0  0  0  0  0  0  0  0  0  0  0  0
   19.9780   26.0121   37.1678 C   0  0  0  0  0  0  0  0  0  0  0  0
   20.2814   25.1442   38.3155 N   0  0  0  0  0  0  0  0  0  0  0  0
   21.0891   25.7316   39.3527 C   0  0  0  0  0  0  0  0  0  0  0  0
   20.5821   25.9767   40.4802 O   0  0  0  0  0  0  0  0  0  0  0  0
   22.5300   26.0717   39.0933 C   0  0  0  0  0  0  0  0  0  0  0  0
   22.6779   27.1640   38.0273 C   0  0  0  0  0  0  0  0  0  0  0  0
   22.3707   26.6367   36.6908 N   0  0  0  0  0  0  0  0  0  0  0  0
   19.6263   23.8183   38.4886 C   0  0  0  0  0  0  0  0  0  0  0  0
   19.7318   22.9968   37.1824 C   0  0  0  0  0  0  0  0  0  0  0  0
   20.3102   22.9901   39.6055 C   0  0  0  0  0  0  0  0  0  0  0  0
   18.1457   24.0207   38.8581 C   0  0  0  0  0  0  0  0  0  0  0  0
  1  2  1  0
  2  3  2  0
  2  4  1  0
  4  5  2  0
  5  6  1  0
  6  7  2  0
  7  8  1  0
  8  9  2  0
  9 10  1  0
 10 11  2  0
 11 12  1  0
 12 13  2  0
 13 14  1  0
  1 15  1  0
 15 16  2  0
 16 17  1  0
 17 18  2  0
 18 19  1  0
 19 20  1  0
 20 21  1  0
 21 22  2  0
 21 23  1  0
 23 24  1  0
 24 25  1  0
 20 26  1  0
 26 27  1  0
 26 28  1  0
 26 29  1  0
 13  4  1  0
 25 15  1  0
 12  7  1  0
 25 18  1  0
M  END
>  <AAScore>  (1) 
564.2422802906134

>  <RootName>  (1) 
./4ZLY/04_DeltaGEst/trajectory_05/rank_00/lead_0214

$$$$
