confid_11
     RDKit          3D

 28 30  0  0  0  0  0  0  0  0999 V2000
   24.5700   26.8800   35.5900 N   0  0  0  0  0  0  0  0  0  0  0  0
   25.5000   26.4000   34.6900 C   0  0  0  0  0  0  0  0  0  0  0  0
   25.1700   25.5200   33.9100 O   0  0  0  0  0  0  0  0  0  0  0  0
   26.8400   27.0200   34.7400 C   0  0  0  0  0  0  0  0  0  0  0  0
   27.3800   27.2800   35.9400 N   0  0  0  0  0  0  0  0  0  0  0  0
   28.6200   27.7400   36.0300 N   0  0  0  0  0  0  0  0  0  0  0  0
   29.3800   28.0000   34.9600 C   0  0  0  0  0  0  0  0  0  0  0  0
   30.6700   28.5000   35.1300 C   0  0  0  0  0  0  0  0  0  0  0  0
   31.5400   28.6100   34.0300 C   0  0  0  0  0  0  0  0  0  0  0  0
   31.0900   28.2200   32.7700 C   0  0  0  0  0  0  0  0  0  0  0  0
   29.8000   27.7000   32.6000 C   0  0  0  0  0  0  0  0  0  0  0  0
   28.9600   27.5500   33.7100 C   0  0  0  0  0  0  0  0  0  0  0  0
   27.6600   27.0300   33.5900 C   0  0  0  0  0  0  0  0  0  0  0  0
   27.1600   26.7400   32.3400 N   0  0  0  0  0  0  0  0  0  0  0  0
   33.1953   29.1790   34.2521 S   0  0  0  0  0  6  0  0  0  0  0  0
   33.2288   30.1789   35.3740 O   0  0  0  0  0  0  0  0  0  0  0  0
   33.6559   29.8642   32.9959 O   0  0  0  0  0  0  0  0  0  0  0  0
   34.3234   27.8323   34.6304 C   0  0  1  0  0  0  0  0  0  0  0  0
   33.9902   27.1232   35.9343 C   0  0  0  0  0  0  0  0  0  0  0  0
   34.4014   25.7126   35.8026 N   0  0  0  0  0  0  0  0  0  0  0  0
   34.7041   25.4812   34.3703 C   0  0  2  0  0  0  0  0  0  0  0  0
   34.3071   26.7354   33.5907 C   0  0  0  0  0  0  0  0  0  0  0  0
   34.0226   24.1943   33.8267 C   0  0  0  0  0  0  0  0  0  0  0  0
   32.6670   23.7999   34.4734 C   0  0  0  0  0  0  0  0  0  0  0  0
   32.2697   22.3871   34.0239 C   0  0  0  0  0  0  0  0  0  0  0  0
   31.5395   24.7816   34.1286 C   0  0  0  0  0  0  0  0  0  0  0  0
   35.5456   25.4085   36.6906 C   0  0  0  0  0  0  0  0  0  0  0  0
   35.8231   23.9076   36.7559 C   0  0  0  0  0  0  0  0  0  0  0  0
  1  2  1  0
  2  3  2  0
  2  4  1  0
  4  5  2  0
  5  6  1  0
  6  7  2  0
  7  8  1  0
  8  9  2  0
  9 10  1  0
 10 11  2  0
 11 12  1  0
 12 13  2  0
 13 14  1  0
  9 15  1  0
 15 16  2  0
 15 17  2  0
 18 15  1  6
 18 19  1  0
 19 20  1  0
 20 21  1  0
 21 22  1  0
 21 23  1  6
 23 24  1  0
 24 25  1  0
 24 26  1  0
 20 27  1  0
 27 28  1  0
 13  4  1  0
 22 18  1  0
 12  7  1  0
M  END
>  <AAScore>  (1) 
866.570033095172

>  <RootName>  (1) 
./4ZLY/04_DeltaGEst/trajectory_05/rank_01/lead_0497

$$$$
