confid_1
     RDKit          3D

 28 31  0  0  0  0  0  0  0  0999 V2000
   25.3300   26.2600   34.7600 N   0  0  0  0  0  0  0  0  0  0  0  0
   26.1200   25.9200   33.6900 C   0  0  0  0  0  0  0  0  0  0  0  0
   25.6300   25.1100   32.9400 O   0  0  0  0  0  0  0  0  0  0  0  0
   27.5200   26.3800   33.4600 C   0  0  0  0  0  0  0  0  0  0  0  0
   28.1600   26.6300   34.6100 N   0  0  0  0  0  0  0  0  0  0  0  0
   29.4800   26.8500   34.5700 N   0  0  0  0  0  0  0  0  0  0  0  0
   30.1900   26.7800   33.4400 C   0  0  0  0  0  0  0  0  0  0  0  0
   31.5600   27.0500   33.5000 C   0  0  0  0  0  0  0  0  0  0  0  0
   32.2700   27.2400   32.3100 C   0  0  0  0  0  0  0  0  0  0  0  0
   31.6100   27.2500   31.0800 C   0  0  0  0  0  0  0  0  0  0  0  0
   30.2700   26.8700   31.0600 C   0  0  0  0  0  0  0  0  0  0  0  0
   29.5100   26.6900   32.2300 C   0  0  0  0  0  0  0  0  0  0  0  0
   28.1400   26.4100   32.2000 C   0  0  0  0  0  0  0  0  0  0  0  0
   27.4300   26.1300   31.0500 N   0  0  0  0  0  0  0  0  0  0  0  0
   24.1868   25.5053   35.2137 C   0  0  0  0  0  0  0  0  0  0  0  0
   24.1719   24.1518   35.0320 N   0  0  0  0  0  0  0  0  0  0  0  0
   23.1506   23.4016   35.5013 C   0  0  0  0  0  0  0  0  0  0  0  0
   23.0125   21.9157   35.3661 C   0  0  0  0  0  0  0  0  0  0  0  0
   21.7582   21.6429   36.0680 N   0  0  0  0  0  0  0  0  0  0  0  0
   21.2295   22.8684   36.5635 C   0  0  0  0  0  0  0  0  0  0  0  0
   20.1461   22.9588   37.1992 O   0  0  0  0  0  0  0  0  0  0  0  0
   22.1142   23.9634   36.2059 C   0  0  0  0  0  0  0  0  0  0  0  0
   22.0664   25.3436   36.4567 C   0  0  0  0  0  0  0  0  0  0  0  0
   20.9297   25.9318   37.2665 C   0  0  0  0  0  0  0  0  0  0  0  0
   19.7185   26.2214   36.3837 C   0  0  0  0  0  0  0  0  0  0  0  0
   23.1082   26.1457   35.8988 C   0  0  0  0  0  0  0  0  0  0  0  0
   23.0984   27.6508   36.0461 C   0  0  0  0  0  0  0  0  0  0  0  0
   21.1471   20.3302   36.2290 C   0  0  0  0  0  0  0  0  0  0  0  0
  1  2  1  0
  2  3  2  0
  2  4  1  0
  4  5  2  0
  5  6  1  0
  6  7  2  0
  7  8  1  0
  8  9  2  0
  9 10  1  0
 10 11  2  0
 11 12  1  0
 12 13  2  0
 13 14  1  0
  1 15  1  0
 15 16  2  0
 16 17  1  0
 17 18  1  0
 18 19  1  0
 19 20  1  0
 20 21  2  0
 20 22  1  0
 22 23  1  0
 23 24  1  0
 24 25  1  0
 23 26  2  0
 26 27  1  0
 19 28  1  0
 13  4  1  0
 26 15  1  0
 12  7  1  0
 22 17  2  0
M  END
>  <AAScore>  (1) 
3907.322689070087

>  <RootName>  (1) 
./4ZLY/04_DeltaGEst/trajectory_03/rank_00/lead_0085

$$$$
