confid_19
     RDKit          3D

 30 33  0  0  0  0  0  0  0  0999 V2000
   24.5500   26.3900   36.2500 N   0  0  0  0  0  0  0  0  0  0  0  0
   25.6000   26.1300   35.4000 C   0  0  0  0  0  0  0  0  0  0  0  0
   25.4300   25.4300   34.4200 O   0  0  0  0  0  0  0  0  0  0  0  0
   26.9800   26.6300   35.7100 C   0  0  0  0  0  0  0  0  0  0  0  0
   27.3200   26.8200   36.9800 N   0  0  0  0  0  0  0  0  0  0  0  0
   28.4700   27.4000   37.3100 N   0  0  0  0  0  0  0  0  0  0  0  0
   29.4000   27.6300   36.3700 C   0  0  0  0  0  0  0  0  0  0  0  0
   30.6600   28.0500   36.8000 C   0  0  0  0  0  0  0  0  0  0  0  0
   31.5700   28.3600   35.7800 C   0  0  0  0  0  0  0  0  0  0  0  0
   31.3700   28.1000   34.4300 C   0  0  0  0  0  0  0  0  0  0  0  0
   30.1200   27.5900   34.0500 C   0  0  0  0  0  0  0  0  0  0  0  0
   29.1500   27.3400   35.0300 C   0  0  0  0  0  0  0  0  0  0  0  0
   27.8800   26.8900   34.6600 C   0  0  0  0  0  0  0  0  0  0  0  0
   27.4800   26.6100   33.3700 N   0  0  0  0  0  0  0  0  0  0  0  0
   30.9886   28.3102   38.2190 C   0  0  0  0  0  0  0  0  0  0  0  0
   31.8892   27.4807   38.8110 C   0  0  0  0  0  0  0  0  0  0  0  0
   32.2560   27.5714   40.2316 C   0  0  0  0  0  0  0  0  0  0  0  0
   32.6114   26.4332   41.1339 C   0  0  0  0  0  0  0  0  0  0  0  0
   32.2713   26.8209   42.6284 C   0  0  0  0  0  0  0  0  0  0  0  0
   31.4462   28.0548   42.7244 N   0  0  0  0  0  0  0  0  0  0  0  0
   30.0359   27.8166   43.1131 C   0  0  0  0  0  0  0  0  0  0  0  0
   29.1461   27.0373   42.1079 C   0  0  0  0  0  0  0  0  0  0  0  0
   29.5922   25.6419   41.9086 N   0  0  0  0  0  0  0  0  0  0  0  0
   29.1293   25.1405   40.6037 C   0  0  0  0  0  0  0  0  0  0  0  0
   29.0865   24.7627   42.9774 C   0  0  0  0  0  0  0  0  0  0  0  0
   31.6164   28.6960   41.1035 S   0  0  0  0  0  4  0  0  0  0  0  0
   30.4300   29.6903   40.2356 C   0  0  0  0  0  0  0  0  0  0  0  0
   30.2542   29.4320   38.9235 C   0  0  0  0  0  0  0  0  0  0  0  0
   29.3611   30.1964   38.1509 O   0  0  0  0  0  0  0  0  0  0  0  0
   28.5557   31.2634   38.6435 C   0  0  0  0  0  0  0  0  0  0  0  0
  1  2  1  0
  2  3  2  0
  2  4  1  0
  4  5  2  0
  5  6  1  0
  6  7  2  0
  7  8  1  0
  8  9  2  0
  9 10  1  0
 10 11  2  0
 11 12  1  0
 12 13  2  0
 13 14  1  0
  8 15  1  0
 15 16  2  0
 16 17  1  0
 17 18  1  0
 18 19  1  0
 19 20  1  0
 20 21  1  0
 21 22  1  0
 22 23  1  0
 23 24  1  0
 23 25  1  0
 20 26  1  0
 26 27  1  0
 27 28  2  0
 28 29  1  0
 29 30  1  0
 13  4  1  0
 28 15  1  0
 12  7  1  0
 26 17  2  0
M  END
>  <AAScore>  (1) 
52.01013503457328

>  <RootName>  (1) 
./4ZLY/04_DeltaGEst/trajectory_01/rank_01/lead_0498

$$$$
