confid_9
     RDKit          3D

 28 31  0  0  0  0  0  0  0  0999 V2000
   24.6900   26.1200   35.5300 N   0  0  0  0  0  0  0  0  0  0  0  0
   25.6600   25.6700   34.6600 C   0  0  0  0  0  0  0  0  0  0  0  0
   25.2400   25.0100   33.7200 O   0  0  0  0  0  0  0  0  0  0  0  0
   27.0300   26.2200   34.8800 C   0  0  0  0  0  0  0  0  0  0  0  0
   27.3500   26.7300   36.0700 N   0  0  0  0  0  0  0  0  0  0  0  0
   28.5700   27.1800   36.3300 N   0  0  0  0  0  0  0  0  0  0  0  0
   29.5300   27.1100   35.3900 C   0  0  0  0  0  0  0  0  0  0  0  0
   30.8300   27.5700   35.6500 C   0  0  0  0  0  0  0  0  0  0  0  0
   31.8500   27.5400   34.6900 C   0  0  0  0  0  0  0  0  0  0  0  0
   31.5100   27.1200   33.4000 C   0  0  0  0  0  0  0  0  0  0  0  0
   30.2200   26.6300   33.1100 C   0  0  0  0  0  0  0  0  0  0  0  0
   29.2400   26.6600   34.1000 C   0  0  0  0  0  0  0  0  0  0  0  0
   27.9300   26.2600   33.8100 C   0  0  0  0  0  0  0  0  0  0  0  0
   27.5200   25.7100   32.6100 N   0  0  0  0  0  0  0  0  0  0  0  0
   23.3164   26.3621   35.1793 C   0  0  0  0  0  0  0  0  0  0  0  0
   22.3602   26.2236   36.1342 N   0  0  0  0  0  0  0  0  0  0  0  0
   21.0455   26.4449   35.8812 C   0  0  0  0  0  0  0  0  0  0  0  0
   20.6224   26.8374   34.6027 C   0  0  0  0  0  0  0  0  0  0  0  0
   19.1475   27.0115   34.3277 C   0  0  0  0  0  0  0  0  0  0  0  0
   18.7141   25.9754   33.3638 N   0  0  0  0  0  0  0  0  0  0  0  0
   18.0868   24.8306   34.0414 C   0  0  0  0  0  0  0  0  0  0  0  0
   17.8834   26.4877   32.2488 C   0  0  0  0  0  0  0  0  0  0  0  0
   18.4211   25.9509   30.9160 C   0  0  0  0  0  0  0  0  0  0  0  0
   19.7750   26.5640   30.5266 C   0  0  0  0  0  0  0  0  0  0  0  0
   20.7580   26.2527   31.4998 O   0  0  0  0  0  0  0  0  0  0  0  0
   21.2122   27.4062   32.1828 C   0  0  0  0  0  0  0  0  0  0  0  0
   21.5965   27.0198   33.5904 C   0  0  0  0  0  0  0  0  0  0  0  0
   22.9463   26.7819   33.8915 C   0  0  0  0  0  0  0  0  0  0  0  0
  1  2  1  0
  2  3  2  0
  2  4  1  0
  4  5  2  0
  5  6  1  0
  6  7  2  0
  7  8  1  0
  8  9  2  0
  9 10  1  0
 10 11  2  0
 11 12  1  0
 12 13  2  0
 13 14  1  0
  1 15  1  0
 15 16  2  0
 16 17  1  0
 17 18  2  0
 18 19  1  0
 19 20  1  0
 20 21  1  0
 20 22  1  0
 22 23  1  0
 23 24  1  0
 24 25  1  0
 25 26  1  0
 26 27  1  0
 27 28  2  0
 13  4  1  0
 28 15  1  0
 12  7  1  0
 27 18  1  0
M  END
>  <AAScore>  (1) 
1097.2646942325057

>  <RootName>  (1) 
./4ZLY/04_DeltaGEst/trajectory_02/rank_00/lead_0452

$$$$
