confid_17
     RDKit          3D

 28 30  0  0  0  0  0  0  0  0999 V2000
   24.5700   26.8800   35.5900 N   0  0  0  0  0  0  0  0  0  0  0  0
   25.5000   26.4000   34.6900 C   0  0  0  0  0  0  0  0  0  0  0  0
   25.1700   25.5200   33.9100 O   0  0  0  0  0  0  0  0  0  0  0  0
   26.8400   27.0200   34.7400 C   0  0  0  0  0  0  0  0  0  0  0  0
   27.3800   27.2800   35.9400 N   0  0  0  0  0  0  0  0  0  0  0  0
   28.6200   27.7400   36.0300 N   0  0  0  0  0  0  0  0  0  0  0  0
   29.3800   28.0000   34.9600 C   0  0  0  0  0  0  0  0  0  0  0  0
   30.6700   28.5000   35.1300 C   0  0  0  0  0  0  0  0  0  0  0  0
   31.5400   28.6100   34.0300 C   0  0  0  0  0  0  0  0  0  0  0  0
   31.0900   28.2200   32.7700 C   0  0  0  0  0  0  0  0  0  0  0  0
   29.8000   27.7000   32.6000 C   0  0  0  0  0  0  0  0  0  0  0  0
   28.9600   27.5500   33.7100 C   0  0  0  0  0  0  0  0  0  0  0  0
   27.6600   27.0300   33.5900 C   0  0  0  0  0  0  0  0  0  0  0  0
   27.1600   26.7400   32.3400 N   0  0  0  0  0  0  0  0  0  0  0  0
   33.1768   29.2393   34.2498 S   0  0  0  0  0  6  0  0  0  0  0  0
   33.5536   30.0295   33.0276 O   0  0  0  0  0  0  0  0  0  0  0  0
   33.1753   30.1795   35.4226 O   0  0  0  0  0  0  0  0  0  0  0  0
   34.3977   28.0129   34.5253 N   0  0  0  0  0  0  0  0  0  0  0  0
   33.9662   26.9492   35.4407 C   0  0  0  0  0  0  0  0  0  0  0  0
   34.1425   25.8502   34.3783 C   0  0  0  0  0  0  0  0  0  0  0  0
   35.3516   24.8382   34.6238 C   0  0  0  0  0  0  0  0  0  0  0  0
   35.6867   24.0944   33.3057 C   0  0  0  0  0  0  0  0  0  0  0  0
   36.6516   25.5479   35.1140 C   0  0  0  0  0  0  0  0  0  0  0  0
   34.9528   23.7803   35.6929 C   0  0  0  0  0  0  0  0  0  0  0  0
   36.0554   22.9512   36.0083 O   0  0  0  0  0  0  0  0  0  0  0  0
   35.6426   21.9196   36.8764 C   0  0  0  0  0  0  0  0  0  0  0  0
   32.7942   25.1760   34.0201 C   0  0  0  0  0  0  0  0  0  0  0  0
   34.4631   27.0275   33.4404 C   0  0  0  0  0  0  0  0  0  0  0  0
  1  2  1  0
  2  3  2  0
  2  4  1  0
  4  5  2  0
  5  6  1  0
  6  7  2  0
  7  8  1  0
  8  9  2  0
  9 10  1  0
 10 11  2  0
 11 12  1  0
 12 13  2  0
 13 14  1  0
  9 15  1  0
 15 16  2  0
 15 17  2  0
 15 18  1  0
 18 19  1  0
 19 20  1  0
 20 21  1  0
 21 22  1  0
 21 23  1  0
 21 24  1  0
 24 25  1  0
 25 26  1  0
 20 27  1  0
 20 28  1  0
 13  4  1  0
 28 18  1  0
 12  7  1  0
M  END
>  <AAScore>  (1) 
907.3196656978744

>  <RootName>  (1) 
./4ZLY/04_DeltaGEst/trajectory_05/rank_01/lead_0019

$$$$
