confid_18
     RDKit          3D

 28 31  0  0  0  0  0  0  0  0999 V2000
   24.4800   26.1000   36.1300 N   0  0  0  0  0  0  0  0  0  0  0  0
   25.2500   26.2500   34.9900 C   0  0  0  0  0  0  0  0  0  0  0  0
   24.7400   25.7600   33.9900 O   0  0  0  0  0  0  0  0  0  0  0  0
   26.5900   26.8900   34.9600 C   0  0  0  0  0  0  0  0  0  0  0  0
   27.0600   27.2400   36.1600 N   0  0  0  0  0  0  0  0  0  0  0  0
   28.3000   27.7100   36.2400 N   0  0  0  0  0  0  0  0  0  0  0  0
   29.0500   27.9600   35.1500 C   0  0  0  0  0  0  0  0  0  0  0  0
   30.3400   28.4900   35.2600 C   0  0  0  0  0  0  0  0  0  0  0  0
   31.1100   28.8200   34.1400 C   0  0  0  0  0  0  0  0  0  0  0  0
   30.5200   28.6700   32.8800 C   0  0  0  0  0  0  0  0  0  0  0  0
   29.2900   28.0200   32.7700 C   0  0  0  0  0  0  0  0  0  0  0  0
   28.5200   27.7100   33.8900 C   0  0  0  0  0  0  0  0  0  0  0  0
   27.2700   27.0800   33.7600 C   0  0  0  0  0  0  0  0  0  0  0  0
   26.7500   26.8800   32.4900 N   0  0  0  0  0  0  0  0  0  0  0  0
   23.5631   25.0174   36.3614 C   0  0  0  0  0  0  0  0  0  0  0  0
   22.5125   25.2311   37.0938 N   0  0  0  0  0  0  0  0  0  0  0  0
   21.5649   24.2043   37.4123 C   0  0  0  0  0  0  0  0  0  0  0  0
   21.5967   23.0068   36.7996 C   0  0  0  0  0  0  0  0  0  0  0  0
   20.4588   22.0406   37.0593 C   0  0  0  0  0  0  0  0  0  0  0  0
   19.2045   22.6425   36.7848 O   0  0  0  0  0  0  0  0  0  0  0  0
   18.7811   22.5172   35.4298 C   0  0  2  0  0  0  0  0  0  0  0  0
   18.4125   21.0763   35.0358 C   0  0  0  0  0  0  0  0  0  0  0  0
   19.7125   23.2156   34.4166 C   0  0  0  0  0  0  0  0  0  0  0  0
   20.8375   22.4055   34.1105 O   0  0  0  0  0  0  0  0  0  0  0  0
   22.0637   23.0835   34.3280 C   0  0  0  0  0  0  0  0  0  0  0  0
   22.6519   22.7335   35.7192 C   0  0  2  0  0  0  0  0  0  0  0  0
   23.1005   21.2509   35.7278 C   0  0  0  0  0  0  0  0  0  0  0  0
   23.9177   23.5988   35.9816 C   0  0  0  0  0  0  0  0  0  0  0  0
  1  2  1  0
  2  3  2  0
  2  4  1  0
  4  5  2  0
  5  6  1  0
  6  7  2  0
  7  8  1  0
  8  9  2  0
  9 10  1  0
 10 11  2  0
 11 12  1  0
 12 13  2  0
 13 14  1  0
  1 15  1  0
 15 16  2  0
 16 17  1  0
 17 18  2  0
 18 19  1  0
 19 20  1  0
 20 21  1  0
 21 22  1  6
 21 23  1  0
 23 24  1  0
 24 25  1  0
 25 26  1  0
 26 27  1  6
 26 28  1  0
 13  4  1  0
 28 15  1  0
 12  7  1  0
 26 18  1  0
M  END
>  <AAScore>  (1) 
1493.875830606903

>  <RootName>  (1) 
./4ZLY/04_DeltaGEst/trajectory_00/rank_01/lead_0166

$$$$
