confid_19
     RDKit          3D

 29 32  0  0  0  0  0  0  0  0999 V2000
   24.6900   26.1200   35.5300 N   0  0  0  0  0  0  0  0  0  0  0  0
   25.6600   25.6700   34.6600 C   0  0  0  0  0  0  0  0  0  0  0  0
   25.2400   25.0100   33.7200 O   0  0  0  0  0  0  0  0  0  0  0  0
   27.0300   26.2200   34.8800 C   0  0  0  0  0  0  0  0  0  0  0  0
   27.3500   26.7300   36.0700 N   0  0  0  0  0  0  0  0  0  0  0  0
   28.5700   27.1800   36.3300 N   0  0  0  0  0  0  0  0  0  0  0  0
   29.5300   27.1100   35.3900 C   0  0  0  0  0  0  0  0  0  0  0  0
   30.8300   27.5700   35.6500 C   0  0  0  0  0  0  0  0  0  0  0  0
   31.8500   27.5400   34.6900 C   0  0  0  0  0  0  0  0  0  0  0  0
   31.5100   27.1200   33.4000 C   0  0  0  0  0  0  0  0  0  0  0  0
   30.2200   26.6300   33.1100 C   0  0  0  0  0  0  0  0  0  0  0  0
   29.2400   26.6600   34.1000 C   0  0  0  0  0  0  0  0  0  0  0  0
   27.9300   26.2600   33.8100 C   0  0  0  0  0  0  0  0  0  0  0  0
   27.5200   25.7100   32.6100 N   0  0  0  0  0  0  0  0  0  0  0  0
   23.5345   25.3521   35.9037 C   0  0  0  0  0  0  0  0  0  0  0  0
   22.5986   25.8992   36.7241 N   0  0  0  0  0  0  0  0  0  0  0  0
   21.4946   25.2006   37.0970 C   0  0  0  0  0  0  0  0  0  0  0  0
   21.3016   23.8956   36.6334 C   0  0  0  0  0  0  0  0  0  0  0  0
   20.1198   23.0811   37.0999 C   0  0  0  0  0  0  0  0  0  0  0  0
   19.8160   21.9588   36.1881 N   0  0  0  0  0  0  0  0  0  0  0  0
   21.0190   21.1489   35.9064 C   0  0  0  0  0  0  0  0  0  0  0  0
   22.1244   21.9638   35.2132 C   0  0  0  0  0  0  0  0  0  0  0  0
   22.2865   23.3352   35.8052 C   0  0  0  0  0  0  0  0  0  0  0  0
   23.3717   24.0769   35.4585 N   0  0  0  0  0  0  0  0  0  0  0  0
   19.0829   22.3793   34.9703 C   0  0  0  0  0  0  0  0  0  0  0  0
   17.6542   21.8355   35.0222 C   0  0  0  0  0  0  0  0  0  0  0  0
   16.9445   22.3069   33.9330 F   0  0  0  0  0  0  0  0  0  0  0  0
   17.6828   20.4462   34.9784 F   0  0  0  0  0  0  0  0  0  0  0  0
   17.0208   22.2475   36.1871 F   0  0  0  0  0  0  0  0  0  0  0  0
  1  2  1  0
  2  3  2  0
  2  4  1  0
  4  5  2  0
  5  6  1  0
  6  7  2  0
  7  8  1  0
  8  9  2  0
  9 10  1  0
 10 11  2  0
 11 12  1  0
 12 13  2  0
 13 14  1  0
  1 15  1  0
 15 16  2  0
 16 17  1  0
 17 18  2  0
 18 19  1  0
 19 20  1  0
 20 21  1  0
 21 22  1  0
 22 23  1  0
 23 24  2  0
 20 25  1  0
 25 26  1  0
 26 27  1  0
 26 28  1  0
 26 29  1  0
 13  4  1  0
 24 15  1  0
 12  7  1  0
 23 18  1  0
M  END
>  <AAScore>  (1) 
10388.231693091371

>  <RootName>  (1) 
./4ZLY/04_DeltaGEst/trajectory_02/rank_00/lead_0265

$$$$
