confid_5
     RDKit          3D

 27 31  0  0  0  0  0  0  0  0999 V2000
   24.5500   26.3900   36.2500 N   0  0  0  0  0  0  0  0  0  0  0  0
   25.6000   26.1300   35.4000 C   0  0  0  0  0  0  0  0  0  0  0  0
   25.4300   25.4300   34.4200 O   0  0  0  0  0  0  0  0  0  0  0  0
   26.9800   26.6300   35.7100 C   0  0  0  0  0  0  0  0  0  0  0  0
   27.3200   26.8200   36.9800 N   0  0  0  0  0  0  0  0  0  0  0  0
   28.4700   27.4000   37.3100 N   0  0  0  0  0  0  0  0  0  0  0  0
   29.4000   27.6300   36.3700 C   0  0  0  0  0  0  0  0  0  0  0  0
   30.6600   28.0500   36.8000 C   0  0  0  0  0  0  0  0  0  0  0  0
   31.5700   28.3600   35.7800 C   0  0  0  0  0  0  0  0  0  0  0  0
   31.3700   28.1000   34.4300 C   0  0  0  0  0  0  0  0  0  0  0  0
   30.1200   27.5900   34.0500 C   0  0  0  0  0  0  0  0  0  0  0  0
   29.1500   27.3400   35.0300 C   0  0  0  0  0  0  0  0  0  0  0  0
   27.8800   26.8900   34.6600 C   0  0  0  0  0  0  0  0  0  0  0  0
   27.4800   26.6100   33.3700 N   0  0  0  0  0  0  0  0  0  0  0  0
   30.9664   28.3050   38.1823 N   0  0  0  0  0  0  0  0  0  0  0  0
   30.2773   29.3779   38.9026 C   0  0  0  0  0  0  0  0  0  0  0  0
   29.8775   28.8814   40.2902 C   0  0  0  0  0  0  0  0  0  0  0  0
   31.0274   28.1986   40.9865 C   0  0  0  0  0  0  0  0  0  0  0  0
   31.0080   28.0516   42.3768 C   0  0  0  0  0  0  0  0  0  0  0  0
   32.0411   27.3566   43.0103 C   0  0  0  0  0  0  0  0  0  0  0  0
   33.0586   26.8533   42.2633 N   0  0  0  0  0  0  0  0  0  0  0  0
   33.0785   26.9778   40.9356 N   0  0  0  0  0  0  0  0  0  0  0  0
   32.0875   27.6197   40.2615 C   0  0  0  0  0  0  0  0  0  0  0  0
   32.1920   27.7492   38.7645 C   0  0  0  0  0  0  0  0  0  0  0  0
   32.0713   27.2250   44.5048 C   0  0  0  0  0  0  0  0  0  0  0  0
   32.2979   25.8104   45.0196 C   0  0  0  0  0  0  0  0  0  0  0  0
   30.9154   26.4329   45.0997 C   0  0  0  0  0  0  0  0  0  0  0  0
  1  2  1  0
  2  3  2  0
  2  4  1  0
  4  5  2  0
  5  6  1  0
  6  7  2  0
  7  8  1  0
  8  9  2  0
  9 10  1  0
 10 11  2  0
 11 12  1  0
 12 13  2  0
 13 14  1  0
  8 15  1  0
 15 16  1  0
 16 17  1  0
 17 18  1  0
 18 19  2  0
 19 20  1  0
 20 21  2  0
 21 22  1  0
 22 23  2  0
 23 24  1  0
 20 25  1  0
 25 26  1  0
 26 27  1  0
 13  4  1  0
 24 15  1  0
 27 25  1  0
 12  7  1  0
 23 18  1  0
M  END
>  <AAScore>  (1) 
115.7374592864328

>  <RootName>  (1) 
./4ZLY/04_DeltaGEst/trajectory_01/rank_01/lead_0211

$$$$
