confid_3
     RDKit          3D

 27 30  0  0  0  0  0  0  0  0999 V2000
   24.5500   26.3900   36.2500 N   0  0  0  0  0  0  0  0  0  0  0  0
   25.6000   26.1300   35.4000 C   0  0  0  0  0  0  0  0  0  0  0  0
   25.4300   25.4300   34.4200 O   0  0  0  0  0  0  0  0  0  0  0  0
   26.9800   26.6300   35.7100 C   0  0  0  0  0  0  0  0  0  0  0  0
   27.3200   26.8200   36.9800 N   0  0  0  0  0  0  0  0  0  0  0  0
   28.4700   27.4000   37.3100 N   0  0  0  0  0  0  0  0  0  0  0  0
   29.4000   27.6300   36.3700 C   0  0  0  0  0  0  0  0  0  0  0  0
   30.6600   28.0500   36.8000 C   0  0  0  0  0  0  0  0  0  0  0  0
   31.5700   28.3600   35.7800 C   0  0  0  0  0  0  0  0  0  0  0  0
   31.3700   28.1000   34.4300 C   0  0  0  0  0  0  0  0  0  0  0  0
   30.1200   27.5900   34.0500 C   0  0  0  0  0  0  0  0  0  0  0  0
   29.1500   27.3400   35.0300 C   0  0  0  0  0  0  0  0  0  0  0  0
   27.8800   26.8900   34.6600 C   0  0  0  0  0  0  0  0  0  0  0  0
   27.4800   26.6100   33.3700 N   0  0  0  0  0  0  0  0  0  0  0  0
   23.2109   25.8861   36.0990 C   0  0  0  0  0  0  0  0  0  0  0  0
   22.2516   26.2571   37.0046 N   0  0  0  0  0  0  0  0  0  0  0  0
   20.9678   25.8073   36.9108 C   0  0  0  0  0  0  0  0  0  0  0  0
   20.6427   24.9561   35.8620 C   0  0  0  0  0  0  0  0  0  0  0  0
   19.3476   24.3034   35.5067 C   0  0  1  0  0  0  0  0  0  0  0  0
   18.2755   25.3188   35.1881 C   0  0  0  0  0  0  0  0  0  0  0  0
   17.2317   25.3026   35.8227 O   0  0  0  0  0  0  0  0  0  0  0  0
   18.4651   26.3488   34.1091 C   0  0  0  0  0  0  0  0  0  0  0  0
   19.7673   23.5153   34.2814 C   0  0  0  0  0  0  0  0  0  0  0  0
   21.0579   23.6911   33.9869 C   0  0  0  0  0  0  0  0  0  0  0  0
   21.6105   24.5922   34.9725 C   0  0  0  0  0  0  0  0  0  0  0  0
   22.8845   25.0404   35.0740 N   0  0  0  0  0  0  0  0  0  0  0  0
   18.8600   22.6175   33.5021 C   0  0  0  0  0  0  0  0  0  0  0  0
  1  2  1  0
  2  3  2  0
  2  4  1  0
  4  5  2  0
  5  6  1  0
  6  7  2  0
  7  8  1  0
  8  9  2  0
  9 10  1  0
 10 11  2  0
 11 12  1  0
 12 13  2  0
 13 14  1  0
  1 15  1  0
 15 16  2  0
 16 17  1  0
 17 18  2  0
 18 19  1  0
 19 20  1  6
 20 21  2  0
 20 22  1  0
 19 23  1  0
 23 24  2  0
 24 25  1  0
 25 26  2  0
 23 27  1  0
 13  4  1  0
 26 15  1  0
 12  7  1  0
 25 18  1  0
M  END
>  <AAScore>  (1) 
36012.470484281235

>  <RootName>  (1) 
./4ZLY/04_DeltaGEst/trajectory_01/rank_00/lead_0458

$$$$
