confid_15
     RDKit          3D

 30 33  0  0  0  0  0  0  0  0999 V2000
   24.6900   26.1200   35.5300 N   0  0  0  0  0  0  0  0  0  0  0  0
   25.6600   25.6700   34.6600 C   0  0  0  0  0  0  0  0  0  0  0  0
   25.2400   25.0100   33.7200 O   0  0  0  0  0  0  0  0  0  0  0  0
   27.0300   26.2200   34.8800 C   0  0  0  0  0  0  0  0  0  0  0  0
   27.3500   26.7300   36.0700 N   0  0  0  0  0  0  0  0  0  0  0  0
   28.5700   27.1800   36.3300 N   0  0  0  0  0  0  0  0  0  0  0  0
   29.5300   27.1100   35.3900 C   0  0  0  0  0  0  0  0  0  0  0  0
   30.8300   27.5700   35.6500 C   0  0  0  0  0  0  0  0  0  0  0  0
   31.8500   27.5400   34.6900 C   0  0  0  0  0  0  0  0  0  0  0  0
   31.5100   27.1200   33.4000 C   0  0  0  0  0  0  0  0  0  0  0  0
   30.2200   26.6300   33.1100 C   0  0  0  0  0  0  0  0  0  0  0  0
   29.2400   26.6600   34.1000 C   0  0  0  0  0  0  0  0  0  0  0  0
   27.9300   26.2600   33.8100 C   0  0  0  0  0  0  0  0  0  0  0  0
   27.5200   25.7100   32.6100 N   0  0  0  0  0  0  0  0  0  0  0  0
   31.1689   28.0856   36.9957 C   0  0  0  0  0  0  0  0  0  0  0  0
   31.8767   27.2602   37.8658 C   0  0  0  0  0  0  0  0  0  0  0  0
   32.1622   27.6747   39.1762 C   0  0  0  0  0  0  0  0  0  0  0  0
   32.8492   26.6611   40.0864 C   0  0  0  0  0  0  0  0  0  0  0  0
   32.2431   26.3852   41.4874 C   0  0  0  0  0  0  0  0  0  0  0  0
   30.7957   26.0634   41.5398 N   0  0  0  0  0  0  0  0  0  0  0  0
   29.8365   27.0371   40.9614 C   0  0  0  0  0  0  0  0  0  0  0  0
   29.7394   28.4450   41.6116 C   0  0  0  0  0  0  0  0  0  0  0  0
   31.0094   29.2446   41.9883 C   0  0  0  0  0  0  0  0  0  0  0  0
   32.1262   29.4449   40.9282 C   0  0  0  0  0  0  0  0  0  0  0  0
   31.7802   28.9379   39.5872 N   0  0  0  0  0  0  0  0  0  0  0  0
   31.0672   29.7599   38.7422 C   0  0  0  0  0  0  0  0  0  0  0  0
   30.6667   30.8880   39.1478 O   0  0  0  0  0  0  0  0  0  0  0  0
   30.7677   29.3629   37.4246 C   0  0  0  0  0  0  0  0  0  0  0  0
   29.9773   30.2759   36.5138 C   0  0  0  0  0  0  0  0  0  0  0  0
   30.4045   25.6887   42.9099 C   0  0  0  0  0  0  0  0  0  0  0  0
  1  2  1  0
  2  3  2  0
  2  4  1  0
  4  5  2  0
  5  6  1  0
  6  7  2  0
  7  8  1  0
  8  9  2  0
  9 10  1  0
 10 11  2  0
 11 12  1  0
 12 13  2  0
 13 14  1  0
  8 15  1  0
 15 16  1  0
 16 17  2  0
 17 18  1  0
 18 19  1  0
 19 20  1  0
 20 21  1  0
 21 22  1  0
 22 23  1  0
 23 24  1  0
 24 25  1  0
 25 26  1  0
 26 27  2  0
 26 28  1  0
 28 29  1  0
 20 30  1  0
 13  4  1  0
 28 15  2  0
 12  7  1  0
 25 17  1  0
M  END
>  <AAScore>  (1) 
29.89014575663406

>  <RootName>  (1) 
./4ZLY/04_DeltaGEst/trajectory_02/rank_01/lead_0459

$$$$
