confid_17
     RDKit          3D

 29 32  0  0  0  0  0  0  0  0999 V2000
   24.6900   26.1200   35.5300 N   0  0  0  0  0  0  0  0  0  0  0  0
   25.6600   25.6700   34.6600 C   0  0  0  0  0  0  0  0  0  0  0  0
   25.2400   25.0100   33.7200 O   0  0  0  0  0  0  0  0  0  0  0  0
   27.0300   26.2200   34.8800 C   0  0  0  0  0  0  0  0  0  0  0  0
   27.3500   26.7300   36.0700 N   0  0  0  0  0  0  0  0  0  0  0  0
   28.5700   27.1800   36.3300 N   0  0  0  0  0  0  0  0  0  0  0  0
   29.5300   27.1100   35.3900 C   0  0  0  0  0  0  0  0  0  0  0  0
   30.8300   27.5700   35.6500 C   0  0  0  0  0  0  0  0  0  0  0  0
   31.8500   27.5400   34.6900 C   0  0  0  0  0  0  0  0  0  0  0  0
   31.5100   27.1200   33.4000 C   0  0  0  0  0  0  0  0  0  0  0  0
   30.2200   26.6300   33.1100 C   0  0  0  0  0  0  0  0  0  0  0  0
   29.2400   26.6600   34.1000 C   0  0  0  0  0  0  0  0  0  0  0  0
   27.9300   26.2600   33.8100 C   0  0  0  0  0  0  0  0  0  0  0  0
   27.5200   25.7100   32.6100 N   0  0  0  0  0  0  0  0  0  0  0  0
   23.2810   26.1949   35.2457 C   0  0  0  0  0  0  0  0  0  0  0  0
   22.3963   25.9893   36.2580 N   0  0  0  0  0  0  0  0  0  0  0  0
   21.0535   26.0803   36.0771 C   0  0  0  0  0  0  0  0  0  0  0  0
   20.5299   26.4261   34.8254 C   0  0  0  0  0  0  0  0  0  0  0  0
   19.0356   26.4664   34.6341 C   0  0  0  0  0  0  0  0  0  0  0  0
   18.6453   27.3224   33.4317 C   0  0  0  0  0  0  0  0  0  0  0  0
   19.4646   26.9461   32.2785 N   0  0  0  0  0  0  0  0  0  0  0  0
   20.9220   27.0718   32.3895 C   0  0  0  0  0  0  0  0  0  0  0  0
   21.4193   26.6475   33.7521 C   0  0  0  0  0  0  0  0  0  0  0  0
   22.8005   26.5487   33.9737 C   0  0  0  0  0  0  0  0  0  0  0  0
   18.8635   26.8850   30.9758 C   0  0  0  0  0  0  0  0  0  0  0  0
   19.2724   27.6615   30.0695 O   0  0  0  0  0  0  0  0  0  0  0  0
   17.8180   25.9366   30.6902 N   0  0  0  0  0  0  0  0  0  0  0  0
   17.6899   24.7214   31.4995 C   0  0  0  0  0  0  0  0  0  0  0  0
   16.9604   26.1413   29.5201 C   0  0  0  0  0  0  0  0  0  0  0  0
  1  2  1  0
  2  3  2  0
  2  4  1  0
  4  5  2  0
  5  6  1  0
  6  7  2  0
  7  8  1  0
  8  9  2  0
  9 10  1  0
 10 11  2  0
 11 12  1  0
 12 13  2  0
 13 14  1  0
  1 15  1  0
 15 16  2  0
 16 17  1  0
 17 18  2  0
 18 19  1  0
 19 20  1  0
 20 21  1  0
 21 22  1  0
 22 23  1  0
 23 24  2  0
 21 25  1  0
 25 26  2  0
 25 27  1  0
 27 28  1  0
 27 29  1  0
 13  4  1  0
 24 15  1  0
 12  7  1  0
 23 18  1  0
M  END
>  <AAScore>  (1) 
271.0832115686362

>  <RootName>  (1) 
./4ZLY/04_DeltaGEst/trajectory_02/rank_00/lead_0200

$$$$
