confid_6
     RDKit          3D

 28 31  0  0  0  0  0  0  0  0999 V2000
   24.5700   26.8800   35.5900 N   0  0  0  0  0  0  0  0  0  0  0  0
   25.5000   26.4000   34.6900 C   0  0  0  0  0  0  0  0  0  0  0  0
   25.1700   25.5200   33.9100 O   0  0  0  0  0  0  0  0  0  0  0  0
   26.8400   27.0200   34.7400 C   0  0  0  0  0  0  0  0  0  0  0  0
   27.3800   27.2800   35.9400 N   0  0  0  0  0  0  0  0  0  0  0  0
   28.6200   27.7400   36.0300 N   0  0  0  0  0  0  0  0  0  0  0  0
   29.3800   28.0000   34.9600 C   0  0  0  0  0  0  0  0  0  0  0  0
   30.6700   28.5000   35.1300 C   0  0  0  0  0  0  0  0  0  0  0  0
   31.5400   28.6100   34.0300 C   0  0  0  0  0  0  0  0  0  0  0  0
   31.0900   28.2200   32.7700 C   0  0  0  0  0  0  0  0  0  0  0  0
   29.8000   27.7000   32.6000 C   0  0  0  0  0  0  0  0  0  0  0  0
   28.9600   27.5500   33.7100 C   0  0  0  0  0  0  0  0  0  0  0  0
   27.6600   27.0300   33.5900 C   0  0  0  0  0  0  0  0  0  0  0  0
   27.1600   26.7400   32.3400 N   0  0  0  0  0  0  0  0  0  0  0  0
   33.1574   29.2723   34.2393 S   0  0  0  0  0  6  0  0  0  0  0  0
   33.6987   28.8573   35.5788 O   0  0  0  0  0  0  0  0  0  0  0  0
   34.0679   28.7391   33.1676 O   0  0  0  0  0  0  0  0  0  0  0  0
   33.0767   31.0606   34.1535 C   0  0  1  0  0  0  0  0  0  0  0  0
   34.4433   31.7228   34.2991 C   0  0  0  0  0  0  0  0  0  0  0  0
   34.4969   32.8664   33.3678 N   0  0  0  0  0  0  0  0  0  0  0  0
   34.7911   34.1331   34.0702 C   0  0  0  0  0  0  0  0  0  0  0  0
   36.2386   34.2046   34.5647 C   0  0  0  0  0  0  0  0  0  0  0  0
   36.5020   35.3631   33.6153 C   0  0  0  0  0  0  0  0  0  0  0  0
   36.7818   36.5482   34.2745 F   0  0  0  0  0  0  0  0  0  0  0  0
   37.4368   35.0594   32.6398 F   0  0  0  0  0  0  0  0  0  0  0  0
   35.0702   35.2910   33.1074 C   0  0  0  0  0  0  0  0  0  0  0  0
   33.1943   32.9181   32.6826 C   0  0  0  0  0  0  0  0  0  0  0  0
   32.5613   31.5499   32.8199 C   0  0  0  0  0  0  0  0  0  0  0  0
  1  2  1  0
  2  3  2  0
  2  4  1  0
  4  5  2  0
  5  6  1  0
  6  7  2  0
  7  8  1  0
  8  9  2  0
  9 10  1  0
 10 11  2  0
 11 12  1  0
 12 13  2  0
 13 14  1  0
  9 15  1  0
 15 16  2  0
 15 17  2  0
 18 15  1  6
 18 19  1  0
 19 20  1  0
 20 21  1  0
 21 22  1  0
 22 23  1  0
 23 24  1  0
 23 25  1  0
 23 26  1  0
 20 27  1  0
 27 28  1  0
 13  4  1  0
 28 18  1  0
 12  7  1  0
 26 21  1  0
M  END
>  <AAScore>  (1) 
-5.760174150104856

>  <RootName>  (1) 
./4ZLY/04_DeltaGEst/trajectory_05/rank_01/lead_0460

$$$$
