confid_13
     RDKit          3D

 28 31  0  0  0  0  0  0  0  0999 V2000
   24.6900   26.1200   35.5300 N   0  0  0  0  0  0  0  0  0  0  0  0
   25.6600   25.6700   34.6600 C   0  0  0  0  0  0  0  0  0  0  0  0
   25.2400   25.0100   33.7200 O   0  0  0  0  0  0  0  0  0  0  0  0
   27.0300   26.2200   34.8800 C   0  0  0  0  0  0  0  0  0  0  0  0
   27.3500   26.7300   36.0700 N   0  0  0  0  0  0  0  0  0  0  0  0
   28.5700   27.1800   36.3300 N   0  0  0  0  0  0  0  0  0  0  0  0
   29.5300   27.1100   35.3900 C   0  0  0  0  0  0  0  0  0  0  0  0
   30.8300   27.5700   35.6500 C   0  0  0  0  0  0  0  0  0  0  0  0
   31.8500   27.5400   34.6900 C   0  0  0  0  0  0  0  0  0  0  0  0
   31.5100   27.1200   33.4000 C   0  0  0  0  0  0  0  0  0  0  0  0
   30.2200   26.6300   33.1100 C   0  0  0  0  0  0  0  0  0  0  0  0
   29.2400   26.6600   34.1000 C   0  0  0  0  0  0  0  0  0  0  0  0
   27.9300   26.2600   33.8100 C   0  0  0  0  0  0  0  0  0  0  0  0
   27.5200   25.7100   32.6100 N   0  0  0  0  0  0  0  0  0  0  0  0
   31.1528   28.0709   36.9630 N   0  0  0  0  0  0  0  0  0  0  0  0
   31.6469   29.4560   37.0848 C   0  0  0  0  0  0  0  0  0  0  0  0
   31.7206   29.9517   38.5380 C   0  0  0  0  0  0  0  0  0  0  0  0
   30.3398   30.0416   39.2115 C   0  0  0  0  0  0  0  0  0  0  0  0
   29.4269   28.9411   38.8166 N   0  0  0  0  0  0  0  0  0  0  0  0
   30.0019   27.6162   39.1490 C   0  0  0  0  0  0  0  0  0  0  0  0
   31.0684   27.1673   38.1243 C   0  0  0  0  0  0  0  0  0  0  0  0
   28.1058   29.1049   39.4634 C   0  0  0  0  0  0  0  0  0  0  0  0
   27.3688   30.2970   38.9054 C   0  0  0  0  0  0  0  0  0  0  0  0
   26.9565   30.3065   37.5626 C   0  0  0  0  0  0  0  0  0  0  0  0
   26.2880   31.4167   37.0381 C   0  0  0  0  0  0  0  0  0  0  0  0
   26.0278   32.5248   37.8487 C   0  0  0  0  0  0  0  0  0  0  0  0
   26.4368   32.5247   39.1851 C   0  0  0  0  0  0  0  0  0  0  0  0
   27.1057   31.4162   39.7136 C   0  0  0  0  0  0  0  0  0  0  0  0
  1  2  1  0
  2  3  2  0
  2  4  1  0
  4  5  2  0
  5  6  1  0
  6  7  2  0
  7  8  1  0
  8  9  2  0
  9 10  1  0
 10 11  2  0
 11 12  1  0
 12 13  2  0
 13 14  1  0
  8 15  1  0
 15 16  1  0
 16 17  1  0
 17 18  1  0
 18 19  1  0
 19 20  1  0
 20 21  1  0
 19 22  1  0
 22 23  1  0
 23 24  2  0
 24 25  1  0
 25 26  2  0
 26 27  1  0
 27 28  2  0
 13  4  1  0
 21 15  1  0
 28 23  1  0
 12  7  1  0
M  END
>  <AAScore>  (1) 
16.075322565978638

>  <RootName>  (1) 
./4ZLY/04_DeltaGEst/trajectory_02/rank_01/lead_0440

$$$$
