confid_14
     RDKit          3D

 28 30  0  0  0  0  0  0  0  0999 V2000
   24.5700   26.8800   35.5900 N   0  0  0  0  0  0  0  0  0  0  0  0
   25.5000   26.4000   34.6900 C   0  0  0  0  0  0  0  0  0  0  0  0
   25.1700   25.5200   33.9100 O   0  0  0  0  0  0  0  0  0  0  0  0
   26.8400   27.0200   34.7400 C   0  0  0  0  0  0  0  0  0  0  0  0
   27.3800   27.2800   35.9400 N   0  0  0  0  0  0  0  0  0  0  0  0
   28.6200   27.7400   36.0300 N   0  0  0  0  0  0  0  0  0  0  0  0
   29.3800   28.0000   34.9600 C   0  0  0  0  0  0  0  0  0  0  0  0
   30.6700   28.5000   35.1300 C   0  0  0  0  0  0  0  0  0  0  0  0
   31.5400   28.6100   34.0300 C   0  0  0  0  0  0  0  0  0  0  0  0
   31.0900   28.2200   32.7700 C   0  0  0  0  0  0  0  0  0  0  0  0
   29.8000   27.7000   32.6000 C   0  0  0  0  0  0  0  0  0  0  0  0
   28.9600   27.5500   33.7100 C   0  0  0  0  0  0  0  0  0  0  0  0
   27.6600   27.0300   33.5900 C   0  0  0  0  0  0  0  0  0  0  0  0
   27.1600   26.7400   32.3400 N   0  0  0  0  0  0  0  0  0  0  0  0
   33.1552   29.2767   34.2520 S   0  0  0  0  0  6  0  0  0  0  0  0
   33.8440   28.5241   35.3554 O   0  0  0  0  0  0  0  0  0  0  0  0
   33.9616   29.1182   32.9931 O   0  0  0  0  0  0  0  0  0  0  0  0
   33.0613   31.0114   34.6933 C   0  0  0  0  0  0  0  0  0  0  0  0
   32.1121   31.8175   33.7775 C   0  0  2  0  0  0  0  0  0  0  0  0
   32.6086   31.8223   32.3060 C   0  0  0  0  0  0  0  0  0  0  0  0
   32.1185   33.0592   31.5468 C   0  0  0  0  0  0  0  0  0  0  0  0
   32.6767   34.3643   32.1604 C   0  0  1  0  0  0  0  0  0  0  0  0
   32.8749   34.2569   33.6947 C   0  0  0  0  0  0  0  0  0  0  0  0
   31.9051   33.2544   34.3305 C   0  0  0  0  0  0  0  0  0  0  0  0
   33.9192   34.6583   31.5413 O   0  0  0  0  0  0  0  0  0  0  0  0
   34.1228   36.0531   31.4497 C   0  0  0  0  0  0  0  0  0  0  0  0
   33.3313   36.5828   30.4449 F   0  0  0  0  0  0  0  0  0  0  0  0
   35.4473   36.2880   31.1353 F   0  0  0  0  0  0  0  0  0  0  0  0
  1  2  1  0
  2  3  2  0
  2  4  1  0
  4  5  2  0
  5  6  1  0
  6  7  2  0
  7  8  1  0
  8  9  2  0
  9 10  1  0
 10 11  2  0
 11 12  1  0
 12 13  2  0
 13 14  1  0
  9 15  1  0
 15 16  2  0
 15 17  2  0
 15 18  1  0
 19 18  1  1
 19 20  1  0
 20 21  1  0
 21 22  1  0
 22 23  1  0
 23 24  1  0
 22 25  1  6
 25 26  1  0
 26 27  1  0
 26 28  1  0
 13  4  1  0
 24 19  1  0
 12  7  1  0
M  END
>  <AAScore>  (1) 
1.1166940023396408

>  <RootName>  (1) 
./4ZLY/04_DeltaGEst/trajectory_05/rank_01/lead_0030

$$$$
