confid_3
     RDKit          3D

 27 30  0  0  0  0  0  0  0  0999 V2000
   24.5700   26.8800   35.5900 N   0  0  0  0  0  0  0  0  0  0  0  0
   25.5000   26.4000   34.6900 C   0  0  0  0  0  0  0  0  0  0  0  0
   25.1700   25.5200   33.9100 O   0  0  0  0  0  0  0  0  0  0  0  0
   26.8400   27.0200   34.7400 C   0  0  0  0  0  0  0  0  0  0  0  0
   27.3800   27.2800   35.9400 N   0  0  0  0  0  0  0  0  0  0  0  0
   28.6200   27.7400   36.0300 N   0  0  0  0  0  0  0  0  0  0  0  0
   29.3800   28.0000   34.9600 C   0  0  0  0  0  0  0  0  0  0  0  0
   30.6700   28.5000   35.1300 C   0  0  0  0  0  0  0  0  0  0  0  0
   31.5400   28.6100   34.0300 C   0  0  0  0  0  0  0  0  0  0  0  0
   31.0900   28.2200   32.7700 C   0  0  0  0  0  0  0  0  0  0  0  0
   29.8000   27.7000   32.6000 C   0  0  0  0  0  0  0  0  0  0  0  0
   28.9600   27.5500   33.7100 C   0  0  0  0  0  0  0  0  0  0  0  0
   27.6600   27.0300   33.5900 C   0  0  0  0  0  0  0  0  0  0  0  0
   27.1600   26.7400   32.3400 N   0  0  0  0  0  0  0  0  0  0  0  0
   23.1930   26.4561   35.6463 C   0  0  0  0  0  0  0  0  0  0  0  0
   22.5988   25.9100   34.5501 N   0  0  0  0  0  0  0  0  0  0  0  0
   21.2914   25.5478   34.5365 C   0  0  0  0  0  0  0  0  0  0  0  0
   20.4926   25.7414   35.6684 C   0  0  0  0  0  0  0  0  0  0  0  0
   19.0293   25.3932   35.6056 C   0  0  0  0  0  0  0  0  0  0  0  0
   18.3764   25.3703   36.9948 C   0  0  0  0  0  0  0  0  0  0  0  0
   18.7863   26.5165   37.8283 N   0  0  0  0  0  0  0  0  0  0  0  0
   18.3228   27.8066   37.2879 C   0  0  0  0  0  0  0  0  0  0  0  0
   20.2418   26.5112   38.0748 C   0  0  0  0  0  0  0  0  0  0  0  0
   21.0602   26.3375   36.8113 C   0  0  0  0  0  0  0  0  0  0  0  0
   22.4297   26.6629   36.8126 C   0  0  0  0  0  0  0  0  0  0  0  0
   23.0166   27.1853   37.9692 O   0  0  0  0  0  0  0  0  0  0  0  0
   23.9036   26.4143   38.7711 C   0  0  0  0  0  0  0  0  0  0  0  0
  1  2  1  0
  2  3  2  0
  2  4  1  0
  4  5  2  0
  5  6  1  0
  6  7  2  0
  7  8  1  0
  8  9  2  0
  9 10  1  0
 10 11  2  0
 11 12  1  0
 12 13  2  0
 13 14  1  0
  1 15  1  0
 15 16  2  0
 16 17  1  0
 17 18  2  0
 18 19  1  0
 19 20  1  0
 20 21  1  0
 21 22  1  0
 21 23  1  0
 23 24  1  0
 24 25  2  0
 25 26  1  0
 26 27  1  0
 13  4  1  0
 25 15  1  0
 12  7  1  0
 24 18  1  0
M  END
>  <AAScore>  (1) 
13563.907436806554

>  <RootName>  (1) 
./4ZLY/04_DeltaGEst/trajectory_05/rank_00/lead_0326

$$$$
