confid_7
     RDKit          3D

 32 35  0  0  0  0  0  0  0  0999 V2000
   24.4800   26.1000   36.1300 N   0  0  0  0  0  0  0  0  0  0  0  0
   25.2500   26.2500   34.9900 C   0  0  0  0  0  0  0  0  0  0  0  0
   24.7400   25.7600   33.9900 O   0  0  0  0  0  0  0  0  0  0  0  0
   26.5900   26.8900   34.9600 C   0  0  0  0  0  0  0  0  0  0  0  0
   27.0600   27.2400   36.1600 N   0  0  0  0  0  0  0  0  0  0  0  0
   28.3000   27.7100   36.2400 N   0  0  0  0  0  0  0  0  0  0  0  0
   29.0500   27.9600   35.1500 C   0  0  0  0  0  0  0  0  0  0  0  0
   30.3400   28.4900   35.2600 C   0  0  0  0  0  0  0  0  0  0  0  0
   31.1100   28.8200   34.1400 C   0  0  0  0  0  0  0  0  0  0  0  0
   30.5200   28.6700   32.8800 C   0  0  0  0  0  0  0  0  0  0  0  0
   29.2900   28.0200   32.7700 C   0  0  0  0  0  0  0  0  0  0  0  0
   28.5200   27.7100   33.8900 C   0  0  0  0  0  0  0  0  0  0  0  0
   27.2700   27.0800   33.7600 C   0  0  0  0  0  0  0  0  0  0  0  0
   26.7500   26.8800   32.4900 N   0  0  0  0  0  0  0  0  0  0  0  0
   23.0433   26.0216   36.1336 C   0  0  0  0  0  0  0  0  0  0  0  0
   22.4799   25.2773   37.0374 N   0  0  0  0  0  0  0  0  0  0  0  0
   21.0761   25.0429   37.1807 C   0  0  0  0  0  0  0  0  0  0  0  0
   20.5157   24.9904   38.3922 C   0  0  0  0  0  0  0  0  0  0  0  0
   19.1500   24.4056   38.5948 C   0  0  0  0  0  0  0  0  0  0  0  0
   19.0456   23.8346   39.9497 N   0  0  0  0  0  0  0  0  0  0  0  0
   20.2873   23.4087   40.6290 C   0  0  0  0  0  0  0  0  0  0  0  0
   21.3181   24.5603   40.6918 C   0  0  0  0  0  0  0  0  0  0  0  0
   21.1815   25.4939   39.5602 N   0  0  0  0  0  0  0  0  0  0  0  0
   21.0873   26.9435   39.8202 C   0  0  0  0  0  0  0  0  0  0  0  0
   22.2868   27.7229   39.2385 C   0  0  0  0  0  0  0  0  0  0  0  0
   21.8560   28.9561   38.4257 C   0  0  0  0  0  0  0  0  0  0  0  0
   21.2319   28.6138   37.0554 C   0  0  0  0  0  0  0  0  0  0  0  0
   22.2741   28.4082   35.9265 C   0  0  0  0  0  0  0  0  0  0  0  0
   22.2418   27.0023   35.2991 C   0  0  0  0  0  0  0  0  0  0  0  0
   17.7363   23.4756   40.4514 C   0  0  0  0  0  0  0  0  0  0  0  0
   16.7188   23.6485   39.7253 O   0  0  0  0  0  0  0  0  0  0  0  0
   17.5368   22.8958   41.8221 C   0  0  0  0  0  0  0  0  0  0  0  0
  1  2  1  0
  2  3  2  0
  2  4  1  0
  4  5  2  0
  5  6  1  0
  6  7  2  0
  7  8  1  0
  8  9  2  0
  9 10  1  0
 10 11  2  0
 11 12  1  0
 12 13  2  0
 13 14  1  0
  1 15  1  0
 15 16  2  0
 16 17  1  0
 17 18  2  0
 18 19  1  0
 19 20  1  0
 20 21  1  0
 21 22  1  0
 22 23  1  0
 23 24  1  0
 24 25  1  0
 25 26  1  0
 26 27  1  0
 27 28  1  0
 28 29  1  0
 20 30  1  0
 30 31  2  0
 30 32  1  0
 13  4  1  0
 29 15  1  0
 12  7  1  0
 23 18  1  0
M  END
>  <AAScore>  (1) 
1440.7451414375814

>  <RootName>  (1) 
./4ZLY/04_DeltaGEst/trajectory_00/rank_01/lead_0266

$$$$
