confid_8
     RDKit          3D

 27 30  0  0  0  0  0  0  0  0999 V2000
   25.3300   26.2600   34.7600 N   0  0  0  0  0  0  0  0  0  0  0  0
   26.1200   25.9200   33.6900 C   0  0  0  0  0  0  0  0  0  0  0  0
   25.6300   25.1100   32.9400 O   0  0  0  0  0  0  0  0  0  0  0  0
   27.5200   26.3800   33.4600 C   0  0  0  0  0  0  0  0  0  0  0  0
   28.1600   26.6300   34.6100 N   0  0  0  0  0  0  0  0  0  0  0  0
   29.4800   26.8500   34.5700 N   0  0  0  0  0  0  0  0  0  0  0  0
   30.1900   26.7800   33.4400 C   0  0  0  0  0  0  0  0  0  0  0  0
   31.5600   27.0500   33.5000 C   0  0  0  0  0  0  0  0  0  0  0  0
   32.2700   27.2400   32.3100 C   0  0  0  0  0  0  0  0  0  0  0  0
   31.6100   27.2500   31.0800 C   0  0  0  0  0  0  0  0  0  0  0  0
   30.2700   26.8700   31.0600 C   0  0  0  0  0  0  0  0  0  0  0  0
   29.5100   26.6900   32.2300 C   0  0  0  0  0  0  0  0  0  0  0  0
   28.1400   26.4100   32.2000 C   0  0  0  0  0  0  0  0  0  0  0  0
   27.4300   26.1300   31.0500 N   0  0  0  0  0  0  0  0  0  0  0  0
   26.4029   27.0806   30.5955 C   0  0  0  0  0  0  0  0  0  0  0  0
   26.1334   26.9724   29.1000 C   0  0  0  0  0  0  0  0  0  0  0  0
   27.3958   26.9878   28.3629 N   0  0  0  0  0  0  0  0  0  0  0  0
   27.9801   28.2676   27.9500 C   0  0  0  0  0  0  0  0  0  0  0  0
   28.0752   25.7467   28.0859 C   0  0  0  0  0  0  0  0  0  0  0  0
   28.6608   25.5532   26.8203 C   0  0  0  0  0  0  0  0  0  0  0  0
   29.2672   24.3420   26.4911 C   0  0  0  0  0  0  0  0  0  0  0  0
   29.2964   23.3024   27.4160 C   0  0  0  0  0  0  0  0  0  0  0  0
   28.7292   23.4740   28.6789 C   0  0  0  0  0  0  0  0  0  0  0  0
   28.1192   24.6927   29.0412 C   0  0  0  0  0  0  0  0  0  0  0  0
   27.6102   24.8397   30.4359 C   0  0  0  0  0  0  0  0  0  0  0  0
   27.4219   23.8059   31.1342 O   0  0  0  0  0  0  0  0  0  0  0  0
   29.8855   22.1248   27.0925 F   0  0  0  0  0  0  0  0  0  0  0  0
  1  2  1  0
  2  3  2  0
  2  4  1  0
  4  5  2  0
  5  6  1  0
  6  7  2  0
  7  8  1  0
  8  9  2  0
  9 10  1  0
 10 11  2  0
 11 12  1  0
 12 13  2  0
 13 14  1  0
 14 15  1  0
 15 16  1  0
 16 17  1  0
 17 18  1  0
 17 19  1  0
 19 20  2  0
 20 21  1  0
 21 22  2  0
 22 23  1  0
 23 24  2  0
 24 25  1  0
 25 26  2  0
 22 27  1  0
 13  4  1  0
 25 14  1  0
 12  7  1  0
 24 19  1  0
M  END
>  <AAScore>  (1) 
2.61516871087402

>  <RootName>  (1) 
./4ZLY/04_DeltaGEst/trajectory_03/rank_01/lead_0389

$$$$
