confid_10
     RDKit          3D

 27 30  0  0  0  0  0  0  0  0999 V2000
   25.3300   26.2600   34.7600 N   0  0  0  0  0  0  0  0  0  0  0  0
   26.1200   25.9200   33.6900 C   0  0  0  0  0  0  0  0  0  0  0  0
   25.6300   25.1100   32.9400 O   0  0  0  0  0  0  0  0  0  0  0  0
   27.5200   26.3800   33.4600 C   0  0  0  0  0  0  0  0  0  0  0  0
   28.1600   26.6300   34.6100 N   0  0  0  0  0  0  0  0  0  0  0  0
   29.4800   26.8500   34.5700 N   0  0  0  0  0  0  0  0  0  0  0  0
   30.1900   26.7800   33.4400 C   0  0  0  0  0  0  0  0  0  0  0  0
   31.5600   27.0500   33.5000 C   0  0  0  0  0  0  0  0  0  0  0  0
   32.2700   27.2400   32.3100 C   0  0  0  0  0  0  0  0  0  0  0  0
   31.6100   27.2500   31.0800 C   0  0  0  0  0  0  0  0  0  0  0  0
   30.2700   26.8700   31.0600 C   0  0  0  0  0  0  0  0  0  0  0  0
   29.5100   26.6900   32.2300 C   0  0  0  0  0  0  0  0  0  0  0  0
   28.1400   26.4100   32.2000 C   0  0  0  0  0  0  0  0  0  0  0  0
   27.4300   26.1300   31.0500 N   0  0  0  0  0  0  0  0  0  0  0  0
   24.0122   25.7340   34.9914 C   0  0  0  0  0  0  0  0  0  0  0  0
   23.6536   25.2018   36.1882 N   0  0  0  0  0  0  0  0  0  0  0  0
   22.3488   24.9169   36.0184 C   0  0  0  0  0  0  0  0  0  0  0  0
   21.2607   25.0190   37.0481 C   0  0  0  0  0  0  0  0  0  0  0  0
   20.1375   25.5872   36.2848 N   0  0  0  0  0  0  0  0  0  0  0  0
   20.5784   25.8185   34.9428 C   0  0  0  0  0  0  0  0  0  0  0  0
   19.8909   26.3706   34.0431 O   0  0  0  0  0  0  0  0  0  0  0  0
   21.9360   25.3436   34.8028 C   0  0  0  0  0  0  0  0  0  0  0  0
   22.9686   25.8866   34.1335 N   0  0  0  0  0  0  0  0  0  0  0  0
   22.8703   26.7689   32.9675 C   0  0  0  0  0  0  0  0  0  0  0  0
   18.8323   25.9251   36.8638 C   0  0  0  0  0  0  0  0  0  0  0  0
   17.7109   25.1839   36.1338 C   0  0  0  0  0  0  0  0  0  0  0  0
   18.6125   27.4387   36.8403 C   0  0  0  0  0  0  0  0  0  0  0  0
  1  2  1  0
  2  3  2  0
  2  4  1  0
  4  5  2  0
  5  6  1  0
  6  7  2  0
  7  8  1  0
  8  9  2  0
  9 10  1  0
 10 11  2  0
 11 12  1  0
 12 13  2  0
 13 14  1  0
  1 15  1  0
 15 16  2  0
 16 17  1  0
 17 18  1  0
 18 19  1  0
 19 20  1  0
 20 21  2  0
 20 22  1  0
 22 23  1  0
 23 24  1  0
 19 25  1  0
 25 26  1  0
 25 27  1  0
 13  4  1  0
 23 15  1  0
 12  7  1  0
 22 17  2  0
M  END
>  <AAScore>  (1) 
33593.783772239054

>  <RootName>  (1) 
./4ZLY/04_DeltaGEst/trajectory_03/rank_00/lead_0356

$$$$
