confid_15
     RDKit          3D

 28 31  0  0  0  0  0  0  0  0999 V2000
   24.4800   26.1000   36.1300 N   0  0  0  0  0  0  0  0  0  0  0  0
   25.2500   26.2500   34.9900 C   0  0  0  0  0  0  0  0  0  0  0  0
   24.7400   25.7600   33.9900 O   0  0  0  0  0  0  0  0  0  0  0  0
   26.5900   26.8900   34.9600 C   0  0  0  0  0  0  0  0  0  0  0  0
   27.0600   27.2400   36.1600 N   0  0  0  0  0  0  0  0  0  0  0  0
   28.3000   27.7100   36.2400 N   0  0  0  0  0  0  0  0  0  0  0  0
   29.0500   27.9600   35.1500 C   0  0  0  0  0  0  0  0  0  0  0  0
   30.3400   28.4900   35.2600 C   0  0  0  0  0  0  0  0  0  0  0  0
   31.1100   28.8200   34.1400 C   0  0  0  0  0  0  0  0  0  0  0  0
   30.5200   28.6700   32.8800 C   0  0  0  0  0  0  0  0  0  0  0  0
   29.2900   28.0200   32.7700 C   0  0  0  0  0  0  0  0  0  0  0  0
   28.5200   27.7100   33.8900 C   0  0  0  0  0  0  0  0  0  0  0  0
   27.2700   27.0800   33.7600 C   0  0  0  0  0  0  0  0  0  0  0  0
   26.7500   26.8800   32.4900 N   0  0  0  0  0  0  0  0  0  0  0  0
   23.2568   25.3500   36.1878 C   0  0  0  0  0  0  0  0  0  0  0  0
   22.0959   25.9142   36.5781 N   0  0  0  0  0  0  0  0  0  0  0  0
   21.2052   24.9084   36.5246 C   0  0  0  0  0  0  0  0  0  0  0  0
   21.8433   23.7533   36.1281 C   0  0  0  0  0  0  0  0  0  0  0  0
   21.1592   22.4438   35.8711 C   0  0  0  0  0  0  0  0  0  0  0  0
   21.4331   22.0158   34.4934 N   0  0  0  0  0  0  0  0  0  0  0  0
   22.8018   21.7974   34.0852 C   0  0  0  0  0  0  0  0  0  0  0  0
   23.0997   21.7097   32.8608 O   0  0  0  0  0  0  0  0  0  0  0  0
   23.8899   21.7150   35.1161 C   0  0  0  0  0  0  0  0  0  0  0  0
   24.2795   23.0956   35.6852 C   0  0  0  0  0  0  0  0  0  0  0  0
   23.1515   24.0262   35.9058 N   0  0  0  0  0  0  0  0  0  0  0  0
   20.3413   21.9200   33.5143 C   0  0  0  0  0  0  0  0  0  0  0  0
   20.0842   20.4588   33.1362 C   0  0  0  0  0  0  0  0  0  0  0  0
   18.9050   20.3348   32.1758 C   0  0  0  0  0  0  0  0  0  0  0  0
  1  2  1  0
  2  3  2  0
  2  4  1  0
  4  5  2  0
  5  6  1  0
  6  7  2  0
  7  8  1  0
  8  9  2  0
  9 10  1  0
 10 11  2  0
 11 12  1  0
 12 13  2  0
 13 14  1  0
  1 15  1  0
 15 16  2  0
 16 17  1  0
 17 18  2  0
 18 19  1  0
 19 20  1  0
 20 21  1  0
 21 22  2  0
 21 23  1  0
 23 24  1  0
 24 25  1  0
 20 26  1  0
 26 27  1  0
 27 28  1  0
 13  4  1  0
 25 15  1  0
 12  7  1  0
 25 18  1  0
M  END
>  <AAScore>  (1) 
3702.935061323592

>  <RootName>  (1) 
./4ZLY/04_DeltaGEst/trajectory_00/rank_00/lead_0133

$$$$
