confid_0
     RDKit          3D

 27 30  0  0  0  0  0  0  0  0999 V2000
   24.2000   26.2400   35.6900 N   0  0  0  0  0  0  0  0  0  0  0  0
   24.8500   26.2800   34.4800 C   0  0  0  0  0  0  0  0  0  0  0  0
   24.3100   25.7400   33.5400 O   0  0  0  0  0  0  0  0  0  0  0  0
   26.1800   26.9700   34.4700 C   0  0  0  0  0  0  0  0  0  0  0  0
   26.6500   27.6000   35.5500 N   0  0  0  0  0  0  0  0  0  0  0  0
   27.7900   28.2700   35.6200 N   0  0  0  0  0  0  0  0  0  0  0  0
   28.5400   28.3000   34.5100 C   0  0  0  0  0  0  0  0  0  0  0  0
   29.7700   28.9400   34.5600 C   0  0  0  0  0  0  0  0  0  0  0  0
   30.7000   28.8900   33.5000 C   0  0  0  0  0  0  0  0  0  0  0  0
   30.3700   28.1400   32.3700 C   0  0  0  0  0  0  0  0  0  0  0  0
   29.1200   27.5200   32.2800 C   0  0  0  0  0  0  0  0  0  0  0  0
   28.2100   27.6100   33.3300 C   0  0  0  0  0  0  0  0  0  0  0  0
   26.9700   26.9700   33.3100 C   0  0  0  0  0  0  0  0  0  0  0  0
   26.5300   26.2400   32.2200 N   0  0  0  0  0  0  0  0  0  0  0  0
   23.3393   25.1625   36.1102 C   0  0  0  0  0  0  0  0  0  0  0  0
   23.3040   24.0576   35.4211 N   0  0  0  0  0  0  0  0  0  0  0  0
   22.4756   22.9147   35.6664 C   0  0  0  0  0  0  0  0  0  0  0  0
   21.1360   22.9693   35.6493 C   0  0  0  0  0  0  0  0  0  0  0  0
   20.3045   21.7186   35.5811 C   0  0  0  0  0  0  0  0  0  0  0  0
   19.0060   22.1847   35.1325 N   0  0  0  0  0  0  0  0  0  0  0  0
   19.0197   23.5968   34.9982 C   0  0  0  0  0  0  0  0  0  0  0  0
   18.0386   24.2520   34.5543 O   0  0  0  0  0  0  0  0  0  0  0  0
   20.3036   24.2137   35.4328 C   0  0  1  0  0  0  0  0  0  0  0  0
   20.0735   24.9992   36.7418 C   0  0  0  0  0  0  0  0  0  0  0  0
   21.1844   26.0031   37.0705 C   0  0  0  0  0  0  0  0  0  0  0  0
   22.5307   25.3367   37.3710 C   0  0  0  0  0  0  0  0  0  0  0  0
   17.8600   21.3276   34.8549 C   0  0  0  0  0  0  0  0  0  0  0  0
  1  2  1  0
  2  3  2  0
  2  4  1  0
  4  5  2  0
  5  6  1  0
  6  7  2  0
  7  8  1  0
  8  9  2  0
  9 10  1  0
 10 11  2  0
 11 12  1  0
 12 13  2  0
 13 14  1  0
  1 15  1  0
 15 16  2  0
 16 17  1  0
 17 18  2  0
 18 19  1  0
 19 20  1  0
 20 21  1  0
 21 22  2  0
 21 23  1  0
 23 24  1  1
 24 25  1  0
 25 26  1  0
 20 27  1  0
 13  4  1  0
 26 15  1  0
 12  7  1  0
 23 18  1  0
M  END
>  <AAScore>  (1) 
2066.662268491449

>  <RootName>  (1) 
./4ZLY/04_DeltaGEst/trajectory_04/rank_00/lead_0012

$$$$
