confid_5
     RDKit          3D

 28 31  0  0  0  0  0  0  0  0999 V2000
   25.3300   26.2600   34.7600 N   0  0  0  0  0  0  0  0  0  0  0  0
   26.1200   25.9200   33.6900 C   0  0  0  0  0  0  0  0  0  0  0  0
   25.6300   25.1100   32.9400 O   0  0  0  0  0  0  0  0  0  0  0  0
   27.5200   26.3800   33.4600 C   0  0  0  0  0  0  0  0  0  0  0  0
   28.1600   26.6300   34.6100 N   0  0  0  0  0  0  0  0  0  0  0  0
   29.4800   26.8500   34.5700 N   0  0  0  0  0  0  0  0  0  0  0  0
   30.1900   26.7800   33.4400 C   0  0  0  0  0  0  0  0  0  0  0  0
   31.5600   27.0500   33.5000 C   0  0  0  0  0  0  0  0  0  0  0  0
   32.2700   27.2400   32.3100 C   0  0  0  0  0  0  0  0  0  0  0  0
   31.6100   27.2500   31.0800 C   0  0  0  0  0  0  0  0  0  0  0  0
   30.2700   26.8700   31.0600 C   0  0  0  0  0  0  0  0  0  0  0  0
   29.5100   26.6900   32.2300 C   0  0  0  0  0  0  0  0  0  0  0  0
   28.1400   26.4100   32.2000 C   0  0  0  0  0  0  0  0  0  0  0  0
   27.4300   26.1300   31.0500 N   0  0  0  0  0  0  0  0  0  0  0  0
   23.9172   25.9942   34.8650 C   0  0  0  0  0  0  0  0  0  0  0  0
   23.1443   25.6002   33.8389 N   0  0  0  0  0  0  0  0  0  0  0  0
   21.8967   25.5408   34.3543 C   0  0  0  0  0  0  0  0  0  0  0  0
   20.7478   25.0657   33.4978 C   0  0  0  0  0  0  0  0  0  0  0  0
   19.6790   26.0664   33.2569 N   0  0  0  0  0  0  0  0  0  0  0  0
   20.1167   27.4753   33.1865 C   0  0  0  0  0  0  0  0  0  0  0  0
   20.2159   28.1300   34.5850 C   0  0  0  0  0  0  0  0  0  0  0  0
   19.2134   27.7277   35.5059 O   0  0  0  0  0  0  0  0  0  0  0  0
   19.3512   26.4119   36.0411 C   0  0  0  0  0  0  0  0  0  0  0  0
   20.7239   26.0069   36.6213 C   0  0  0  0  0  0  0  0  0  0  0  0
   21.8506   25.9094   35.6692 N   0  0  0  0  0  0  0  0  0  0  0  0
   23.1422   26.1613   35.9932 C   0  0  0  0  0  0  0  0  0  0  0  0
   23.6294   26.6005   37.3457 C   0  0  0  0  0  0  0  0  0  0  0  0
   18.8854   25.6928   32.0749 C   0  0  0  0  0  0  0  0  0  0  0  0
  1  2  1  0
  2  3  2  0
  2  4  1  0
  4  5  2  0
  5  6  1  0
  6  7  2  0
  7  8  1  0
  8  9  2  0
  9 10  1  0
 10 11  2  0
 11 12  1  0
 12 13  2  0
 13 14  1  0
  1 15  1  0
 15 16  1  0
 16 17  2  0
 17 18  1  0
 18 19  1  0
 19 20  1  0
 20 21  1  0
 21 22  1  0
 22 23  1  0
 23 24  1  0
 24 25  1  0
 25 26  1  0
 26 27  1  0
 19 28  1  0
 13  4  1  0
 26 15  2  0
 12  7  1  0
 25 17  1  0
M  END
>  <AAScore>  (1) 
5005.1143169456855

>  <RootName>  (1) 
./4ZLY/04_DeltaGEst/trajectory_03/rank_00/lead_0196

$$$$
