confid_19
     RDKit          3D

 29 32  0  0  0  0  0  0  0  0999 V2000
   24.6900   26.1200   35.5300 N   0  0  0  0  0  0  0  0  0  0  0  0
   25.6600   25.6700   34.6600 C   0  0  0  0  0  0  0  0  0  0  0  0
   25.2400   25.0100   33.7200 O   0  0  0  0  0  0  0  0  0  0  0  0
   27.0300   26.2200   34.8800 C   0  0  0  0  0  0  0  0  0  0  0  0
   27.3500   26.7300   36.0700 N   0  0  0  0  0  0  0  0  0  0  0  0
   28.5700   27.1800   36.3300 N   0  0  0  0  0  0  0  0  0  0  0  0
   29.5300   27.1100   35.3900 C   0  0  0  0  0  0  0  0  0  0  0  0
   30.8300   27.5700   35.6500 C   0  0  0  0  0  0  0  0  0  0  0  0
   31.8500   27.5400   34.6900 C   0  0  0  0  0  0  0  0  0  0  0  0
   31.5100   27.1200   33.4000 C   0  0  0  0  0  0  0  0  0  0  0  0
   30.2200   26.6300   33.1100 C   0  0  0  0  0  0  0  0  0  0  0  0
   29.2400   26.6600   34.1000 C   0  0  0  0  0  0  0  0  0  0  0  0
   27.9300   26.2600   33.8100 C   0  0  0  0  0  0  0  0  0  0  0  0
   27.5200   25.7100   32.6100 N   0  0  0  0  0  0  0  0  0  0  0  0
   31.1836   28.0719   37.0019 C   0  0  0  0  0  0  0  0  0  0  0  0
   30.9712   27.2741   38.1381 C   0  0  0  0  0  0  0  0  0  0  0  0
   31.2978   27.7494   39.4171 C   0  0  0  0  0  0  0  0  0  0  0  0
   31.1094   26.8509   40.6164 C   0  0  0  0  0  0  0  0  0  0  0  0
   30.9845   27.6119   41.8767 N   0  0  0  0  0  0  0  0  0  0  0  0
   29.6613   28.2717   41.9930 C   0  0  0  0  0  0  0  0  0  0  0  0
   29.3849   28.7241   43.4447 C   0  0  0  0  0  0  0  0  0  0  0  0
   27.9846   29.1316   43.7020 N   0  0  0  0  0  0  0  0  0  0  0  0
   27.0376   28.0052   43.6703 C   0  0  0  0  0  0  0  0  0  0  0  0
   27.5369   30.2308   42.8324 C   0  0  0  0  0  0  0  0  0  0  0  0
   32.1367   28.5278   42.0332 C   0  0  0  0  0  0  0  0  0  0  0  0
   32.2154   29.5852   40.9190 C   0  0  0  0  0  0  0  0  0  0  0  0
   31.8871   29.0224   39.5595 C   0  0  0  0  0  0  0  0  0  0  0  0
   32.1006   29.8155   38.4231 C   0  0  0  0  0  0  0  0  0  0  0  0
   31.7567   29.3433   37.1548 C   0  0  0  0  0  0  0  0  0  0  0  0
  1  2  1  0
  2  3  2  0
  2  4  1  0
  4  5  2  0
  5  6  1  0
  6  7  2  0
  7  8  1  0
  8  9  2  0
  9 10  1  0
 10 11  2  0
 11 12  1  0
 12 13  2  0
 13 14  1  0
  8 15  1  0
 15 16  2  0
 16 17  1  0
 17 18  1  0
 18 19  1  0
 19 20  1  0
 20 21  1  0
 21 22  1  0
 22 23  1  0
 22 24  1  0
 19 25  1  0
 25 26  1  0
 26 27  1  0
 27 28  1  0
 28 29  2  0
 13  4  1  0
 29 15  1  0
 12  7  1  0
 27 17  2  0
M  END
>  <AAScore>  (1) 
8.638005160521917

>  <RootName>  (1) 
./4ZLY/04_DeltaGEst/trajectory_02/rank_01/lead_0396

$$$$
