confid_15
     RDKit          3D

 27 30  0  0  0  0  0  0  0  0999 V2000
   24.4800   26.1000   36.1300 N   0  0  0  0  0  0  0  0  0  0  0  0
   25.2500   26.2500   34.9900 C   0  0  0  0  0  0  0  0  0  0  0  0
   24.7400   25.7600   33.9900 O   0  0  0  0  0  0  0  0  0  0  0  0
   26.5900   26.8900   34.9600 C   0  0  0  0  0  0  0  0  0  0  0  0
   27.0600   27.2400   36.1600 N   0  0  0  0  0  0  0  0  0  0  0  0
   28.3000   27.7100   36.2400 N   0  0  0  0  0  0  0  0  0  0  0  0
   29.0500   27.9600   35.1500 C   0  0  0  0  0  0  0  0  0  0  0  0
   30.3400   28.4900   35.2600 C   0  0  0  0  0  0  0  0  0  0  0  0
   31.1100   28.8200   34.1400 C   0  0  0  0  0  0  0  0  0  0  0  0
   30.5200   28.6700   32.8800 C   0  0  0  0  0  0  0  0  0  0  0  0
   29.2900   28.0200   32.7700 C   0  0  0  0  0  0  0  0  0  0  0  0
   28.5200   27.7100   33.8900 C   0  0  0  0  0  0  0  0  0  0  0  0
   27.2700   27.0800   33.7600 C   0  0  0  0  0  0  0  0  0  0  0  0
   26.7500   26.8800   32.4900 N   0  0  0  0  0  0  0  0  0  0  0  0
   23.4840   25.0797   36.3249 C   0  0  0  0  0  0  0  0  0  0  0  0
   22.4076   25.3940   36.9798 N   0  0  0  0  0  0  0  0  0  0  0  0
   21.2509   24.6195   37.3487 C   0  0  0  0  0  0  0  0  0  0  0  0
   20.8050   23.4584   36.8067 C   0  0  0  0  0  0  0  0  0  0  0  0
   19.5578   22.8401   37.3922 C   0  0  0  0  0  0  0  0  0  0  0  0
   18.6849   22.2901   36.3371 N   0  0  0  0  0  0  0  0  0  0  0  0
   17.8905   23.2931   35.5979 C   0  0  0  0  0  0  0  0  0  0  0  0
   16.5885   23.5859   36.3354 C   0  0  0  0  0  0  0  0  0  0  0  0
   19.3461   21.4102   35.5086 O   0  0  0  0  0  0  0  0  0  0  0  0
   20.3981   22.0601   34.8089 C   0  0  0  0  0  0  0  0  0  0  0  0
   21.4777   22.5837   35.7686 C   0  0  1  0  0  0  0  0  0  0  0  0
   22.6092   23.2247   34.9597 C   0  0  0  0  0  0  0  0  0  0  0  0
   23.7407   23.6780   35.8696 C   0  0  0  0  0  0  0  0  0  0  0  0
  1  2  1  0
  2  3  2  0
  2  4  1  0
  4  5  2  0
  5  6  1  0
  6  7  2  0
  7  8  1  0
  8  9  2  0
  9 10  1  0
 10 11  2  0
 11 12  1  0
 12 13  2  0
 13 14  1  0
  1 15  1  0
 15 16  2  0
 16 17  1  0
 17 18  2  0
 18 19  1  0
 19 20  1  0
 20 21  1  0
 21 22  1  0
 20 23  1  0
 23 24  1  0
 25 24  1  6
 25 26  1  0
 26 27  1  0
 13  4  1  0
 27 15  1  0
 12  7  1  0
 25 18  1  0
M  END
>  <AAScore>  (1) 
591.378210174831

>  <RootName>  (1) 
./4ZLY/04_DeltaGEst/trajectory_00/rank_00/lead_0382

$$$$
