confid_5
     RDKit          3D

 31 34  0  0  0  0  0  0  0  0999 V2000
   25.3300   26.2600   34.7600 N   0  0  0  0  0  0  0  0  0  0  0  0
   26.1200   25.9200   33.6900 C   0  0  0  0  0  0  0  0  0  0  0  0
   25.6300   25.1100   32.9400 O   0  0  0  0  0  0  0  0  0  0  0  0
   27.5200   26.3800   33.4600 C   0  0  0  0  0  0  0  0  0  0  0  0
   28.1600   26.6300   34.6100 N   0  0  0  0  0  0  0  0  0  0  0  0
   29.4800   26.8500   34.5700 N   0  0  0  0  0  0  0  0  0  0  0  0
   30.1900   26.7800   33.4400 C   0  0  0  0  0  0  0  0  0  0  0  0
   31.5600   27.0500   33.5000 C   0  0  0  0  0  0  0  0  0  0  0  0
   32.2700   27.2400   32.3100 C   0  0  0  0  0  0  0  0  0  0  0  0
   31.6100   27.2500   31.0800 C   0  0  0  0  0  0  0  0  0  0  0  0
   30.2700   26.8700   31.0600 C   0  0  0  0  0  0  0  0  0  0  0  0
   29.5100   26.6900   32.2300 C   0  0  0  0  0  0  0  0  0  0  0  0
   28.1400   26.4100   32.2000 C   0  0  0  0  0  0  0  0  0  0  0  0
   27.4300   26.1300   31.0500 N   0  0  0  0  0  0  0  0  0  0  0  0
   27.7297   24.9893   30.2278 C   0  0  0  0  0  0  0  0  0  0  0  0
   28.5452   24.1185   30.6402 O   0  0  0  0  0  0  0  0  0  0  0  0
   27.0761   24.8079   28.9111 C   0  0  0  0  0  0  0  0  0  0  0  0
   26.5859   25.9104   28.1896 C   0  0  0  0  0  0  0  0  0  0  0  0
   25.9865   25.7304   26.9392 C   0  0  0  0  0  0  0  0  0  0  0  0
   25.8642   24.4452   26.3902 C   0  0  0  0  0  0  0  0  0  0  0  0
   26.3546   23.3434   27.1060 C   0  0  0  0  0  0  0  0  0  0  0  0
   26.9608   23.5232   28.3521 C   0  0  0  0  0  0  0  0  0  0  0  0
   25.2274   24.2409   25.0416 C   0  0  0  0  0  0  0  0  0  0  0  0
   26.2249   23.7064   24.0897 N   0  0  0  0  0  0  0  0  0  0  0  0
   27.1076   24.7364   23.5016 C   0  0  0  0  0  0  0  0  0  0  0  0
   26.4892   25.5050   22.3179 C   0  0  0  0  0  0  0  0  0  0  0  0
   26.4125   24.6443   21.0415 C   0  0  0  0  0  0  0  0  0  0  0  0
   25.1739   23.8370   20.9176 N   0  0  0  0  0  0  0  0  0  0  0  0
   24.6146   23.3127   22.1843 C   0  0  0  0  0  0  0  0  0  0  0  0
   25.6857   22.7222   23.1268 C   0  0  0  0  0  0  0  0  0  0  0  0
   24.1354   24.5644   20.1686 C   0  0  0  0  0  0  0  0  0  0  0  0
  1  2  1  0
  2  3  2  0
  2  4  1  0
  4  5  2  0
  5  6  1  0
  6  7  2  0
  7  8  1  0
  8  9  2  0
  9 10  1  0
 10 11  2  0
 11 12  1  0
 12 13  2  0
 13 14  1  0
 14 15  1  0
 15 16  2  0
 15 17  1  0
 17 18  2  0
 18 19  1  0
 19 20  2  0
 20 21  1  0
 21 22  2  0
 20 23  1  0
 23 24  1  0
 24 25  1  0
 25 26  1  0
 26 27  1  0
 27 28  1  0
 28 29  1  0
 29 30  1  0
 28 31  1  0
 13  4  1  0
 22 17  1  0
 30 24  1  0
 12  7  1  0
M  END
>  <AAScore>  (1) 
12.428021819006515

>  <RootName>  (1) 
./4ZLY/04_DeltaGEst/trajectory_03/rank_01/lead_0167

$$$$
