confid_18
     RDKit          3D

 28 31  0  0  0  0  0  0  0  0999 V2000
   24.4800   26.1000   36.1300 N   0  0  0  0  0  0  0  0  0  0  0  0
   25.2500   26.2500   34.9900 C   0  0  0  0  0  0  0  0  0  0  0  0
   24.7400   25.7600   33.9900 O   0  0  0  0  0  0  0  0  0  0  0  0
   26.5900   26.8900   34.9600 C   0  0  0  0  0  0  0  0  0  0  0  0
   27.0600   27.2400   36.1600 N   0  0  0  0  0  0  0  0  0  0  0  0
   28.3000   27.7100   36.2400 N   0  0  0  0  0  0  0  0  0  0  0  0
   29.0500   27.9600   35.1500 C   0  0  0  0  0  0  0  0  0  0  0  0
   30.3400   28.4900   35.2600 C   0  0  0  0  0  0  0  0  0  0  0  0
   31.1100   28.8200   34.1400 C   0  0  0  0  0  0  0  0  0  0  0  0
   30.5200   28.6700   32.8800 C   0  0  0  0  0  0  0  0  0  0  0  0
   29.2900   28.0200   32.7700 C   0  0  0  0  0  0  0  0  0  0  0  0
   28.5200   27.7100   33.8900 C   0  0  0  0  0  0  0  0  0  0  0  0
   27.2700   27.0800   33.7600 C   0  0  0  0  0  0  0  0  0  0  0  0
   26.7500   26.8800   32.4900 N   0  0  0  0  0  0  0  0  0  0  0  0
   23.0777   25.7615   36.1617 C   0  0  0  0  0  0  0  0  0  0  0  0
   22.3344   25.9748   35.1117 N   0  0  0  0  0  0  0  0  0  0  0  0
   20.9424   25.6610   35.0159 C   0  0  0  0  0  0  0  0  0  0  0  0
   19.9769   26.5884   35.1341 C   0  0  0  0  0  0  0  0  0  0  0  0
   18.5418   26.2105   34.8495 C   0  0  0  0  0  0  0  0  0  0  0  0
   17.8021   27.2535   34.0893 N   0  0  0  0  0  0  0  0  0  0  0  0
   18.4962   28.5558   33.9500 C   0  0  0  0  0  0  0  0  0  0  0  0
   19.2422   28.9599   35.2269 C   0  0  0  0  0  0  0  0  0  0  0  0
   20.2223   27.9353   35.5974 N   0  0  0  0  0  0  0  0  0  0  0  0
   21.1630   28.2454   36.6895 C   0  0  0  0  0  0  0  0  0  0  0  0
   20.9218   27.3543   37.9322 C   0  0  0  0  0  0  0  0  0  0  0  0
   22.1660   26.5624   38.3735 C   0  0  0  0  0  0  0  0  0  0  0  0
   22.4745   25.3458   37.4838 C   0  0  0  0  0  0  0  0  0  0  0  0
   16.4343   27.4215   34.6056 C   0  0  0  0  0  0  0  0  0  0  0  0
  1  2  1  0
  2  3  2  0
  2  4  1  0
  4  5  2  0
  5  6  1  0
  6  7  2  0
  7  8  1  0
  8  9  2  0
  9 10  1  0
 10 11  2  0
 11 12  1  0
 12 13  2  0
 13 14  1  0
  1 15  1  0
 15 16  2  0
 16 17  1  0
 17 18  2  0
 18 19  1  0
 19 20  1  0
 20 21  1  0
 21 22  1  0
 22 23  1  0
 23 24  1  0
 24 25  1  0
 25 26  1  0
 26 27  1  0
 20 28  1  0
 13  4  1  0
 27 15  1  0
 12  7  1  0
 23 18  1  0
M  END
>  <AAScore>  (1) 
701.2581812186464

>  <RootName>  (1) 
./4ZLY/04_DeltaGEst/trajectory_00/rank_01/lead_0028

$$$$
