confid_16
     RDKit          3D

 28 31  0  0  0  0  0  0  0  0999 V2000
   24.2000   26.2400   35.6900 N   0  0  0  0  0  0  0  0  0  0  0  0
   24.8500   26.2800   34.4800 C   0  0  0  0  0  0  0  0  0  0  0  0
   24.3100   25.7400   33.5400 O   0  0  0  0  0  0  0  0  0  0  0  0
   26.1800   26.9700   34.4700 C   0  0  0  0  0  0  0  0  0  0  0  0
   26.6500   27.6000   35.5500 N   0  0  0  0  0  0  0  0  0  0  0  0
   27.7900   28.2700   35.6200 N   0  0  0  0  0  0  0  0  0  0  0  0
   28.5400   28.3000   34.5100 C   0  0  0  0  0  0  0  0  0  0  0  0
   29.7700   28.9400   34.5600 C   0  0  0  0  0  0  0  0  0  0  0  0
   30.7000   28.8900   33.5000 C   0  0  0  0  0  0  0  0  0  0  0  0
   30.3700   28.1400   32.3700 C   0  0  0  0  0  0  0  0  0  0  0  0
   29.1200   27.5200   32.2800 C   0  0  0  0  0  0  0  0  0  0  0  0
   28.2100   27.6100   33.3300 C   0  0  0  0  0  0  0  0  0  0  0  0
   26.9700   26.9700   33.3100 C   0  0  0  0  0  0  0  0  0  0  0  0
   26.5300   26.2400   32.2200 N   0  0  0  0  0  0  0  0  0  0  0  0
   30.1439   29.6511   35.7504 N   0  0  0  0  0  0  0  0  0  0  0  0
   30.3165   31.1113   35.6926 C   0  0  0  0  0  0  0  0  0  0  0  0
   29.7831   31.7731   36.9743 C   0  0  0  0  0  0  0  0  0  0  0  0
   30.2128   30.9963   38.1844 C   0  0  0  0  0  0  0  0  0  0  0  0
   30.1745   31.3575   39.5251 C   0  0  0  0  0  0  0  0  0  0  0  0
   29.7407   32.6465   40.1028 C   0  0  0  0  0  0  0  0  0  0  0  0
   29.3262   33.5690   39.3513 O   0  0  0  0  0  0  0  0  0  0  0  0
   29.7797   32.8746   41.5819 C   0  0  0  0  0  0  0  0  0  0  0  0
   30.5825   30.2366   40.2368 C   0  0  0  0  0  0  0  0  0  0  0  0
   30.8514   29.2219   39.3878 N   0  0  0  0  0  0  0  0  0  0  0  0
   30.5996   29.6761   38.1424 C   0  0  0  0  0  0  0  0  0  0  0  0
   30.7289   28.8953   36.8679 C   0  0  0  0  0  0  0  0  0  0  0  0
   31.2315   27.8638   39.7763 C   0  0  0  0  0  0  0  0  0  0  0  0
   29.9897   27.0248   40.0547 C   0  0  0  0  0  0  0  0  0  0  0  0
  1  2  1  0
  2  3  2  0
  2  4  1  0
  4  5  2  0
  5  6  1  0
  6  7  2  0
  7  8  1  0
  8  9  2  0
  9 10  1  0
 10 11  2  0
 11 12  1  0
 12 13  2  0
 13 14  1  0
  8 15  1  0
 15 16  1  0
 16 17  1  0
 17 18  1  0
 18 19  1  0
 19 20  1  0
 20 21  2  0
 20 22  1  0
 19 23  2  0
 23 24  1  0
 24 25  1  0
 25 26  1  0
 24 27  1  0
 27 28  1  0
 13  4  1  0
 26 15  1  0
 12  7  1  0
 25 18  2  0
M  END
>  <AAScore>  (1) 
-7.838512977459858

>  <RootName>  (1) 
./4ZLY/04_DeltaGEst/trajectory_04/rank_01/lead_0271

$$$$
