confid_11
     RDKit          3D

 27 30  0  0  0  0  0  0  0  0999 V2000
   24.2000   26.2400   35.6900 N   0  0  0  0  0  0  0  0  0  0  0  0
   24.8500   26.2800   34.4800 C   0  0  0  0  0  0  0  0  0  0  0  0
   24.3100   25.7400   33.5400 O   0  0  0  0  0  0  0  0  0  0  0  0
   26.1800   26.9700   34.4700 C   0  0  0  0  0  0  0  0  0  0  0  0
   26.6500   27.6000   35.5500 N   0  0  0  0  0  0  0  0  0  0  0  0
   27.7900   28.2700   35.6200 N   0  0  0  0  0  0  0  0  0  0  0  0
   28.5400   28.3000   34.5100 C   0  0  0  0  0  0  0  0  0  0  0  0
   29.7700   28.9400   34.5600 C   0  0  0  0  0  0  0  0  0  0  0  0
   30.7000   28.8900   33.5000 C   0  0  0  0  0  0  0  0  0  0  0  0
   30.3700   28.1400   32.3700 C   0  0  0  0  0  0  0  0  0  0  0  0
   29.1200   27.5200   32.2800 C   0  0  0  0  0  0  0  0  0  0  0  0
   28.2100   27.6100   33.3300 C   0  0  0  0  0  0  0  0  0  0  0  0
   26.9700   26.9700   33.3100 C   0  0  0  0  0  0  0  0  0  0  0  0
   26.5300   26.2400   32.2200 N   0  0  0  0  0  0  0  0  0  0  0  0
   23.2354   25.2353   36.0601 C   0  0  0  0  0  0  0  0  0  0  0  0
   23.0688   24.1173   35.3021 N   0  0  0  0  0  0  0  0  0  0  0  0
   22.1793   23.1407   35.6238 C   0  0  0  0  0  0  0  0  0  0  0  0
   22.0939   21.9257   34.7438 C   0  0  0  0  0  0  0  0  0  0  0  0
   20.8186   21.1262   35.0081 C   0  0  0  0  0  0  0  0  0  0  0  0
   20.6699   20.9061   36.4568 N   0  0  0  0  0  0  0  0  0  0  0  0
   19.5844   19.9473   36.7139 C   0  0  0  0  0  0  0  0  0  0  0  0
   20.3861   22.1836   37.1418 C   0  0  0  0  0  0  0  0  0  0  0  0
   21.4161   23.2453   36.8056 C   0  0  0  0  0  0  0  0  0  0  0  0
   21.5607   24.4032   37.5988 C   0  0  0  0  0  0  0  0  0  0  0  0
   22.4796   25.3902   37.2276 C   0  0  0  0  0  0  0  0  0  0  0  0
   20.7722   24.6038   38.7913 C   0  0  0  0  0  0  0  0  0  0  0  0
   20.1399   24.7646   39.7471 N   0  0  0  0  0  0  0  0  0  0  0  0
  1  2  1  0
  2  3  2  0
  2  4  1  0
  4  5  2  0
  5  6  1  0
  6  7  2  0
  7  8  1  0
  8  9  2  0
  9 10  1  0
 10 11  2  0
 11 12  1  0
 12 13  2  0
 13 14  1  0
  1 15  1  0
 15 16  2  0
 16 17  1  0
 17 18  1  0
 18 19  1  0
 19 20  1  0
 20 21  1  0
 20 22  1  0
 22 23  1  0
 23 24  1  0
 24 25  2  0
 24 26  1  0
 26 27  3  0
 13  4  1  0
 25 15  1  0
 12  7  1  0
 23 17  2  0
M  END
>  <AAScore>  (1) 
946.5481138831868

>  <RootName>  (1) 
./4ZLY/04_DeltaGEst/trajectory_04/rank_00/lead_0232

$$$$
