confid_8
     RDKit          3D

 28 31  0  0  0  0  0  0  0  0999 V2000
   24.5500   26.3900   36.2500 N   0  0  0  0  0  0  0  0  0  0  0  0
   25.6000   26.1300   35.4000 C   0  0  0  0  0  0  0  0  0  0  0  0
   25.4300   25.4300   34.4200 O   0  0  0  0  0  0  0  0  0  0  0  0
   26.9800   26.6300   35.7100 C   0  0  0  0  0  0  0  0  0  0  0  0
   27.3200   26.8200   36.9800 N   0  0  0  0  0  0  0  0  0  0  0  0
   28.4700   27.4000   37.3100 N   0  0  0  0  0  0  0  0  0  0  0  0
   29.4000   27.6300   36.3700 C   0  0  0  0  0  0  0  0  0  0  0  0
   30.6600   28.0500   36.8000 C   0  0  0  0  0  0  0  0  0  0  0  0
   31.5700   28.3600   35.7800 C   0  0  0  0  0  0  0  0  0  0  0  0
   31.3700   28.1000   34.4300 C   0  0  0  0  0  0  0  0  0  0  0  0
   30.1200   27.5900   34.0500 C   0  0  0  0  0  0  0  0  0  0  0  0
   29.1500   27.3400   35.0300 C   0  0  0  0  0  0  0  0  0  0  0  0
   27.8800   26.8900   34.6600 C   0  0  0  0  0  0  0  0  0  0  0  0
   27.4800   26.6100   33.3700 N   0  0  0  0  0  0  0  0  0  0  0  0
   31.0177   28.2810   38.2221 C   0  0  0  0  0  0  0  0  0  0  0  0
   30.6290   27.5004   39.3132 C   0  0  0  0  0  0  0  0  0  0  0  0
   31.1509   27.9581   40.5297 C   0  0  0  0  0  0  0  0  0  0  0  0
   30.9537   27.2727   41.8497 C   0  0  0  0  0  0  0  0  0  0  0  0
   31.2600   28.2276   43.0143 C   0  0  0  0  0  0  0  0  0  0  0  0
   32.5141   28.9565   42.7656 N   0  0  0  0  0  0  0  0  0  0  0  0
   33.4137   29.2073   43.8575 C   0  0  0  0  0  0  0  0  0  0  0  0
   32.9446   29.5142   44.9877 O   0  0  0  0  0  0  0  0  0  0  0  0
   34.8397   29.1101   43.6795 N   0  0  0  0  0  0  0  0  0  0  0  0
   35.4206   28.2589   42.6383 C   0  0  0  0  0  0  0  0  0  0  0  0
   35.7293   29.8592   44.5675 C   0  0  0  0  0  0  0  0  0  0  0  0
   32.6378   29.7608   41.5397 C   0  0  0  0  0  0  0  0  0  0  0  0
   31.9794   29.0606   40.3942 C   0  0  0  0  0  0  0  0  0  0  0  0
   32.0379   29.5090   38.7780 S   0  0  0  0  0  0  0  0  0  0  0  0
  1  2  1  0
  2  3  2  0
  2  4  1  0
  4  5  2  0
  5  6  1  0
  6  7  2  0
  7  8  1  0
  8  9  2  0
  9 10  1  0
 10 11  2  0
 11 12  1  0
 12 13  2  0
 13 14  1  0
  8 15  1  0
 15 16  2  0
 16 17  1  0
 17 18  1  0
 18 19  1  0
 19 20  1  0
 20 21  1  0
 21 22  2  0
 21 23  1  0
 23 24  1  0
 23 25  1  0
 20 26  1  0
 26 27  1  0
 27 28  1  0
 13  4  1  0
 28 15  1  0
 12  7  1  0
 27 17  2  0
M  END
>  <AAScore>  (1) 
729.9522500566413

>  <RootName>  (1) 
./4ZLY/04_DeltaGEst/trajectory_01/rank_01/lead_0443

$$$$
