confid_1
     RDKit          3D

 27 30  0  0  0  0  0  0  0  0999 V2000
   24.5700   26.8800   35.5900 N   0  0  0  0  0  0  0  0  0  0  0  0
   25.5000   26.4000   34.6900 C   0  0  0  0  0  0  0  0  0  0  0  0
   25.1700   25.5200   33.9100 O   0  0  0  0  0  0  0  0  0  0  0  0
   26.8400   27.0200   34.7400 C   0  0  0  0  0  0  0  0  0  0  0  0
   27.3800   27.2800   35.9400 N   0  0  0  0  0  0  0  0  0  0  0  0
   28.6200   27.7400   36.0300 N   0  0  0  0  0  0  0  0  0  0  0  0
   29.3800   28.0000   34.9600 C   0  0  0  0  0  0  0  0  0  0  0  0
   30.6700   28.5000   35.1300 C   0  0  0  0  0  0  0  0  0  0  0  0
   31.5400   28.6100   34.0300 C   0  0  0  0  0  0  0  0  0  0  0  0
   31.0900   28.2200   32.7700 C   0  0  0  0  0  0  0  0  0  0  0  0
   29.8000   27.7000   32.6000 C   0  0  0  0  0  0  0  0  0  0  0  0
   28.9600   27.5500   33.7100 C   0  0  0  0  0  0  0  0  0  0  0  0
   27.6600   27.0300   33.5900 C   0  0  0  0  0  0  0  0  0  0  0  0
   27.1600   26.7400   32.3400 N   0  0  0  0  0  0  0  0  0  0  0  0
   23.1460   26.7942   35.4093 C   0  0  0  0  0  0  0  0  0  0  0  0
   22.3279   27.0288   36.3839 N   0  0  0  0  0  0  0  0  0  0  0  0
   21.0103   26.9105   35.8689 C   0  0  0  0  0  0  0  0  0  0  0  0
   21.0268   26.6152   34.5807 C   0  0  0  0  0  0  0  0  0  0  0  0
   19.8166   26.3860   33.7272 C   0  0  0  0  0  0  0  0  0  0  0  0
   20.2123   25.8279   32.4202 N   0  0  0  0  0  0  0  0  0  0  0  0
   20.9843   26.6214   31.4401 C   0  0  0  0  0  0  0  0  0  0  0  0
   21.6418   27.8871   32.0235 C   0  0  0  0  0  0  0  0  0  0  0  0
   22.7714   27.5996   33.0353 C   0  0  0  0  0  0  0  0  0  0  0  0
   22.4398   26.5308   34.1046 C   0  0  1  0  0  0  0  0  0  0  0  0
   19.8819   24.4662   32.0676 C   0  0  0  0  0  0  0  0  0  0  0  0
   19.8331   24.1290   30.8532 O   0  0  0  0  0  0  0  0  0  0  0  0
   19.5904   23.4281   33.1092 C   0  0  0  0  0  0  0  0  0  0  0  0
  1  2  1  0
  2  3  2  0
  2  4  1  0
  4  5  2  0
  5  6  1  0
  6  7  2  0
  7  8  1  0
  8  9  2  0
  9 10  1  0
 10 11  2  0
 11 12  1  0
 12 13  2  0
 13 14  1  0
  1 15  1  0
 15 16  2  0
 16 17  1  0
 17 18  2  0
 18 19  1  0
 19 20  1  0
 20 21  1  0
 21 22  1  0
 22 23  1  0
 24 23  1  6
 20 25  1  0
 25 26  2  0
 25 27  1  0
 13  4  1  0
 24 15  1  0
 12  7  1  0
 24 18  1  0
M  END
>  <AAScore>  (1) 
2273.663320152944

>  <RootName>  (1) 
./4ZLY/04_DeltaGEst/trajectory_05/rank_00/lead_0040

$$$$
