confid_11
     RDKit          3D

 27 30  0  0  0  0  0  0  0  0999 V2000
   24.5500   26.3900   36.2500 N   0  0  0  0  0  0  0  0  0  0  0  0
   25.6000   26.1300   35.4000 C   0  0  0  0  0  0  0  0  0  0  0  0
   25.4300   25.4300   34.4200 O   0  0  0  0  0  0  0  0  0  0  0  0
   26.9800   26.6300   35.7100 C   0  0  0  0  0  0  0  0  0  0  0  0
   27.3200   26.8200   36.9800 N   0  0  0  0  0  0  0  0  0  0  0  0
   28.4700   27.4000   37.3100 N   0  0  0  0  0  0  0  0  0  0  0  0
   29.4000   27.6300   36.3700 C   0  0  0  0  0  0  0  0  0  0  0  0
   30.6600   28.0500   36.8000 C   0  0  0  0  0  0  0  0  0  0  0  0
   31.5700   28.3600   35.7800 C   0  0  0  0  0  0  0  0  0  0  0  0
   31.3700   28.1000   34.4300 C   0  0  0  0  0  0  0  0  0  0  0  0
   30.1200   27.5900   34.0500 C   0  0  0  0  0  0  0  0  0  0  0  0
   29.1500   27.3400   35.0300 C   0  0  0  0  0  0  0  0  0  0  0  0
   27.8800   26.8900   34.6600 C   0  0  0  0  0  0  0  0  0  0  0  0
   27.4800   26.6100   33.3700 N   0  0  0  0  0  0  0  0  0  0  0  0
   30.9662   28.3054   38.1823 N   0  0  0  0  0  0  0  0  0  0  0  0
   30.2773   29.3788   38.9019 C   0  0  0  0  0  0  0  0  0  0  0  0
   29.8774   28.8828   40.2897 C   0  0  0  0  0  0  0  0  0  0  0  0
   31.0278   28.2017   40.9869 C   0  0  0  0  0  0  0  0  0  0  0  0
   31.0077   28.0559   42.3771 C   0  0  0  0  0  0  0  0  0  0  0  0
   32.0497   27.3716   43.0177 C   0  0  0  0  0  0  0  0  0  0  0  0
   33.0551   26.8521   42.2641 N   0  0  0  0  0  0  0  0  0  0  0  0
   33.0732   26.9737   40.9364 N   0  0  0  0  0  0  0  0  0  0  0  0
   32.0863   27.6210   40.2625 C   0  0  0  0  0  0  0  0  0  0  0  0
   32.1910   27.7487   38.7652 C   0  0  0  0  0  0  0  0  0  0  0  0
   32.0819   27.1919   44.5179 C   0  0  0  0  0  0  0  0  0  0  0  0
   30.8824   26.3698   45.0031 C   0  0  0  0  0  0  0  0  0  0  0  0
   32.1540   28.5438   45.2370 C   0  0  0  0  0  0  0  0  0  0  0  0
  1  2  1  0
  2  3  2  0
  2  4  1  0
  4  5  2  0
  5  6  1  0
  6  7  2  0
  7  8  1  0
  8  9  2  0
  9 10  1  0
 10 11  2  0
 11 12  1  0
 12 13  2  0
 13 14  1  0
  8 15  1  0
 15 16  1  0
 16 17  1  0
 17 18  1  0
 18 19  2  0
 19 20  1  0
 20 21  2  0
 21 22  1  0
 22 23  2  0
 23 24  1  0
 20 25  1  0
 25 26  1  0
 25 27  1  0
 13  4  1  0
 24 15  1  0
 12  7  1  0
 23 18  1  0
M  END
>  <AAScore>  (1) 
84.2256340309776

>  <RootName>  (1) 
./4ZLY/04_DeltaGEst/trajectory_01/rank_01/lead_0226

$$$$
