confid_9
     RDKit          3D

 27 30  0  0  0  0  0  0  0  0999 V2000
   24.4800   26.1000   36.1300 N   0  0  0  0  0  0  0  0  0  0  0  0
   25.2500   26.2500   34.9900 C   0  0  0  0  0  0  0  0  0  0  0  0
   24.7400   25.7600   33.9900 O   0  0  0  0  0  0  0  0  0  0  0  0
   26.5900   26.8900   34.9600 C   0  0  0  0  0  0  0  0  0  0  0  0
   27.0600   27.2400   36.1600 N   0  0  0  0  0  0  0  0  0  0  0  0
   28.3000   27.7100   36.2400 N   0  0  0  0  0  0  0  0  0  0  0  0
   29.0500   27.9600   35.1500 C   0  0  0  0  0  0  0  0  0  0  0  0
   30.3400   28.4900   35.2600 C   0  0  0  0  0  0  0  0  0  0  0  0
   31.1100   28.8200   34.1400 C   0  0  0  0  0  0  0  0  0  0  0  0
   30.5200   28.6700   32.8800 C   0  0  0  0  0  0  0  0  0  0  0  0
   29.2900   28.0200   32.7700 C   0  0  0  0  0  0  0  0  0  0  0  0
   28.5200   27.7100   33.8900 C   0  0  0  0  0  0  0  0  0  0  0  0
   27.2700   27.0800   33.7600 C   0  0  0  0  0  0  0  0  0  0  0  0
   26.7500   26.8800   32.4900 N   0  0  0  0  0  0  0  0  0  0  0  0
   23.4688   25.0963   36.3335 C   0  0  0  0  0  0  0  0  0  0  0  0
   22.6570   25.1751   37.4324 N   0  0  0  0  0  0  0  0  0  0  0  0
   21.6990   24.2365   37.6737 C   0  0  0  0  0  0  0  0  0  0  0  0
   21.5668   23.1807   36.7797 C   0  0  0  0  0  0  0  0  0  0  0  0
   20.6158   22.0548   36.7911 C   0  0  0  0  0  0  0  0  0  0  0  0
   21.0284   21.1866   35.6616 N   0  0  0  0  0  0  0  0  0  0  0  0
   19.8662   20.6594   34.9253 C   0  0  0  0  0  0  0  0  0  0  0  0
   22.0679   21.9162   34.8621 C   0  0  2  0  0  0  0  0  0  0  0  0
   21.5884   22.4235   33.4770 C   0  0  0  0  0  0  0  0  0  0  0  0
   23.3471   21.0489   34.7417 C   0  0  0  0  0  0  0  0  0  0  0  0
   23.1205   19.6922   34.0721 C   0  0  0  0  0  0  0  0  0  0  0  0
   22.3798   23.1084   35.6988 C   0  0  0  0  0  0  0  0  0  0  0  0
   23.3296   24.0501   35.4643 N   0  0  0  0  0  0  0  0  0  0  0  0
  1  2  1  0
  2  3  2  0
  2  4  1  0
  4  5  2  0
  5  6  1  0
  6  7  2  0
  7  8  1  0
  8  9  2  0
  9 10  1  0
 10 11  2  0
 11 12  1  0
 12 13  2  0
 13 14  1  0
  1 15  1  0
 15 16  2  0
 16 17  1  0
 17 18  2  0
 18 19  1  0
 19 20  1  0
 20 21  1  0
 20 22  1  0
 22 23  1  6
 22 24  1  0
 24 25  1  0
 22 26  1  0
 26 27  2  0
 13  4  1  0
 27 15  1  0
 12  7  1  0
 26 18  1  0
M  END
>  <AAScore>  (1) 
786.6543569475948

>  <RootName>  (1) 
./4ZLY/04_DeltaGEst/trajectory_00/rank_01/lead_0065

$$$$
