confid_15
     RDKit          3D

 27 30  0  0  0  0  0  0  0  0999 V2000
   24.5700   26.8800   35.5900 N   0  0  0  0  0  0  0  0  0  0  0  0
   25.5000   26.4000   34.6900 C   0  0  0  0  0  0  0  0  0  0  0  0
   25.1700   25.5200   33.9100 O   0  0  0  0  0  0  0  0  0  0  0  0
   26.8400   27.0200   34.7400 C   0  0  0  0  0  0  0  0  0  0  0  0
   27.3800   27.2800   35.9400 N   0  0  0  0  0  0  0  0  0  0  0  0
   28.6200   27.7400   36.0300 N   0  0  0  0  0  0  0  0  0  0  0  0
   29.3800   28.0000   34.9600 C   0  0  0  0  0  0  0  0  0  0  0  0
   30.6700   28.5000   35.1300 C   0  0  0  0  0  0  0  0  0  0  0  0
   31.5400   28.6100   34.0300 C   0  0  0  0  0  0  0  0  0  0  0  0
   31.0900   28.2200   32.7700 C   0  0  0  0  0  0  0  0  0  0  0  0
   29.8000   27.7000   32.6000 C   0  0  0  0  0  0  0  0  0  0  0  0
   28.9600   27.5500   33.7100 C   0  0  0  0  0  0  0  0  0  0  0  0
   27.6600   27.0300   33.5900 C   0  0  0  0  0  0  0  0  0  0  0  0
   27.1600   26.7400   32.3400 N   0  0  0  0  0  0  0  0  0  0  0  0
   23.1517   26.6428   35.5234 C   0  0  0  0  0  0  0  0  0  0  0  0
   22.3665   26.9869   36.4938 N   0  0  0  0  0  0  0  0  0  0  0  0
   21.0393   26.6602   36.1095 C   0  0  0  0  0  0  0  0  0  0  0  0
   21.0161   26.1218   34.9043 C   0  0  0  0  0  0  0  0  0  0  0  0
   19.7912   25.7756   34.1214 C   0  0  0  0  0  0  0  0  0  0  0  0
   20.1616   25.2548   32.8574 O   0  0  0  0  0  0  0  0  0  0  0  0
   20.5982   26.2387   31.9117 C   0  0  1  0  0  0  0  0  0  0  0  0
   19.3668   26.9407   31.2863 C   0  0  0  0  0  0  0  0  0  0  0  0
   21.5363   27.3281   32.5309 C   0  0  0  0  0  0  0  0  0  0  0  0
   22.6801   26.7745   33.1633 O   0  0  0  0  0  0  0  0  0  0  0  0
   22.4124   26.0430   34.3602 C   0  0  1  0  0  0  0  0  0  0  0  0
   21.3821   25.5500   30.8589 N   0  0  0  0  0  0  0  0  0  0  0  0
   20.6842   24.4194   30.2338 C   0  0  0  0  0  0  0  0  0  0  0  0
  1  2  1  0
  2  3  2  0
  2  4  1  0
  4  5  2  0
  5  6  1  0
  6  7  2  0
  7  8  1  0
  8  9  2  0
  9 10  1  0
 10 11  2  0
 11 12  1  0
 12 13  2  0
 13 14  1  0
  1 15  1  0
 15 16  2  0
 16 17  1  0
 17 18  2  0
 18 19  1  0
 19 20  1  0
 20 21  1  0
 21 22  1  6
 21 23  1  0
 23 24  1  0
 25 24  1  6
 21 26  1  0
 26 27  1  0
 13  4  1  0
 25 15  1  0
 12  7  1  0
 25 18  1  0
M  END
>  <AAScore>  (1) 
458.2963937681016

>  <RootName>  (1) 
./4ZLY/04_DeltaGEst/trajectory_05/rank_00/lead_0237

$$$$
