confid_5
     RDKit          3D

 29 32  0  0  0  0  0  0  0  0999 V2000
   24.4800   26.1000   36.1300 N   0  0  0  0  0  0  0  0  0  0  0  0
   25.2500   26.2500   34.9900 C   0  0  0  0  0  0  0  0  0  0  0  0
   24.7400   25.7600   33.9900 O   0  0  0  0  0  0  0  0  0  0  0  0
   26.5900   26.8900   34.9600 C   0  0  0  0  0  0  0  0  0  0  0  0
   27.0600   27.2400   36.1600 N   0  0  0  0  0  0  0  0  0  0  0  0
   28.3000   27.7100   36.2400 N   0  0  0  0  0  0  0  0  0  0  0  0
   29.0500   27.9600   35.1500 C   0  0  0  0  0  0  0  0  0  0  0  0
   30.3400   28.4900   35.2600 C   0  0  0  0  0  0  0  0  0  0  0  0
   31.1100   28.8200   34.1400 C   0  0  0  0  0  0  0  0  0  0  0  0
   30.5200   28.6700   32.8800 C   0  0  0  0  0  0  0  0  0  0  0  0
   29.2900   28.0200   32.7700 C   0  0  0  0  0  0  0  0  0  0  0  0
   28.5200   27.7100   33.8900 C   0  0  0  0  0  0  0  0  0  0  0  0
   27.2700   27.0800   33.7600 C   0  0  0  0  0  0  0  0  0  0  0  0
   26.7500   26.8800   32.4900 N   0  0  0  0  0  0  0  0  0  0  0  0
   23.4338   25.1246   36.3160 C   0  0  0  0  0  0  0  0  0  0  0  0
   23.2905   24.0791   35.4545 N   0  0  0  0  0  0  0  0  0  0  0  0
   22.3201   23.1413   35.6100 C   0  0  0  0  0  0  0  0  0  0  0  0
   21.4217   23.2260   36.6808 C   0  0  0  0  0  0  0  0  0  0  0  0
   20.3779   22.1579   36.8714 C   0  0  0  0  0  0  0  0  0  0  0  0
   19.2892   22.6056   37.8483 C   0  0  0  0  0  0  0  0  0  0  0  0
   19.9125   23.1554   39.0692 N   0  0  0  0  0  0  0  0  0  0  0  0
   20.5956   24.4279   38.7556 C   0  0  0  0  0  0  0  0  0  0  0  0
   21.5687   24.2715   37.6114 C   0  0  0  0  0  0  0  0  0  0  0  0
   22.5711   25.2309   37.4153 C   0  0  0  0  0  0  0  0  0  0  0  0
   18.9063   23.3591   40.1342 C   0  0  0  0  0  0  0  0  0  0  0  0
   18.7015   22.0810   40.9559 C   0  0  0  0  0  0  0  0  0  0  0  0
   19.9629   21.7039   41.6371 N   0  0  0  0  0  0  0  0  0  0  0  0
   20.6237   20.5790   40.9529 C   0  0  0  0  0  0  0  0  0  0  0  0
   19.7201   21.3512   43.0451 C   0  0  0  0  0  0  0  0  0  0  0  0
  1  2  1  0
  2  3  2  0
  2  4  1  0
  4  5  2  0
  5  6  1  0
  6  7  2  0
  7  8  1  0
  8  9  2  0
  9 10  1  0
 10 11  2  0
 11 12  1  0
 12 13  2  0
 13 14  1  0
  1 15  1  0
 15 16  2  0
 16 17  1  0
 17 18  2  0
 18 19  1  0
 19 20  1  0
 20 21  1  0
 21 22  1  0
 22 23  1  0
 23 24  2  0
 21 25  1  0
 25 26  1  0
 26 27  1  0
 27 28  1  0
 27 29  1  0
 13  4  1  0
 24 15  1  0
 12  7  1  0
 23 18  1  0
M  END
>  <AAScore>  (1) 
556.337227927415

>  <RootName>  (1) 
./4ZLY/04_DeltaGEst/trajectory_00/rank_00/lead_0441

$$$$
