confid_15
     RDKit          3D

 28 31  0  0  0  0  0  0  0  0999 V2000
   24.6900   26.1200   35.5300 N   0  0  0  0  0  0  0  0  0  0  0  0
   25.6600   25.6700   34.6600 C   0  0  0  0  0  0  0  0  0  0  0  0
   25.2400   25.0100   33.7200 O   0  0  0  0  0  0  0  0  0  0  0  0
   27.0300   26.2200   34.8800 C   0  0  0  0  0  0  0  0  0  0  0  0
   27.3500   26.7300   36.0700 N   0  0  0  0  0  0  0  0  0  0  0  0
   28.5700   27.1800   36.3300 N   0  0  0  0  0  0  0  0  0  0  0  0
   29.5300   27.1100   35.3900 C   0  0  0  0  0  0  0  0  0  0  0  0
   30.8300   27.5700   35.6500 C   0  0  0  0  0  0  0  0  0  0  0  0
   31.8500   27.5400   34.6900 C   0  0  0  0  0  0  0  0  0  0  0  0
   31.5100   27.1200   33.4000 C   0  0  0  0  0  0  0  0  0  0  0  0
   30.2200   26.6300   33.1100 C   0  0  0  0  0  0  0  0  0  0  0  0
   29.2400   26.6600   34.1000 C   0  0  0  0  0  0  0  0  0  0  0  0
   27.9300   26.2600   33.8100 C   0  0  0  0  0  0  0  0  0  0  0  0
   27.5200   25.7100   32.6100 N   0  0  0  0  0  0  0  0  0  0  0  0
   23.4898   25.3742   35.7712 C   0  0  0  0  0  0  0  0  0  0  0  0
   23.3758   24.7146   36.8835 N   0  0  0  0  0  0  0  0  0  0  0  0
   22.2524   23.9119   37.2722 C   0  0  0  0  0  0  0  0  0  0  0  0
   20.9614   24.2550   37.0570 C   0  0  0  0  0  0  0  0  0  0  0  0
   19.8777   23.4101   37.6953 C   0  0  0  0  0  0  0  0  0  0  0  0
   19.0033   24.2476   38.5410 N   0  0  0  0  0  0  0  0  0  0  0  0
   18.1716   23.4072   39.4153 C   0  0  0  0  0  0  0  0  0  0  0  0
   17.0176   24.2223   39.9908 C   0  0  0  0  0  0  0  0  0  0  0  0
   19.7839   25.0444   39.3299 O   0  0  0  0  0  0  0  0  0  0  0  0
   19.6541   26.3623   38.8367 C   0  0  0  0  0  0  0  0  0  0  0  0
   20.6395   26.6525   37.6840 C   0  0  0  0  0  0  0  0  0  0  0  0
   20.5274   25.6224   36.5363 C   0  0  1  0  0  0  0  0  0  0  0  0
   21.1855   26.1164   35.2129 C   0  0  0  0  0  0  0  0  0  0  0  0
   22.4055   25.3326   34.7368 C   0  0  0  0  0  0  0  0  0  0  0  0
  1  2  1  0
  2  3  2  0
  2  4  1  0
  4  5  2  0
  5  6  1  0
  6  7  2  0
  7  8  1  0
  8  9  2  0
  9 10  1  0
 10 11  2  0
 11 12  1  0
 12 13  2  0
 13 14  1  0
  1 15  1  0
 15 16  2  0
 16 17  1  0
 17 18  2  0
 18 19  1  0
 19 20  1  0
 20 21  1  0
 21 22  1  0
 20 23  1  0
 23 24  1  0
 24 25  1  0
 26 25  1  1
 26 27  1  0
 27 28  1  0
 13  4  1  0
 28 15  1  0
 12  7  1  0
 26 18  1  0
M  END
>  <AAScore>  (1) 
2220.46467142106

>  <RootName>  (1) 
./4ZLY/04_DeltaGEst/trajectory_02/rank_00/lead_0074

$$$$
