confid_6
     RDKit          3D

 28 31  0  0  0  0  0  0  0  0999 V2000
   24.4800   26.1000   36.1300 N   0  0  0  0  0  0  0  0  0  0  0  0
   25.2500   26.2500   34.9900 C   0  0  0  0  0  0  0  0  0  0  0  0
   24.7400   25.7600   33.9900 O   0  0  0  0  0  0  0  0  0  0  0  0
   26.5900   26.8900   34.9600 C   0  0  0  0  0  0  0  0  0  0  0  0
   27.0600   27.2400   36.1600 N   0  0  0  0  0  0  0  0  0  0  0  0
   28.3000   27.7100   36.2400 N   0  0  0  0  0  0  0  0  0  0  0  0
   29.0500   27.9600   35.1500 C   0  0  0  0  0  0  0  0  0  0  0  0
   30.3400   28.4900   35.2600 C   0  0  0  0  0  0  0  0  0  0  0  0
   31.1100   28.8200   34.1400 C   0  0  0  0  0  0  0  0  0  0  0  0
   30.5200   28.6700   32.8800 C   0  0  0  0  0  0  0  0  0  0  0  0
   29.2900   28.0200   32.7700 C   0  0  0  0  0  0  0  0  0  0  0  0
   28.5200   27.7100   33.8900 C   0  0  0  0  0  0  0  0  0  0  0  0
   27.2700   27.0800   33.7600 C   0  0  0  0  0  0  0  0  0  0  0  0
   26.7500   26.8800   32.4900 N   0  0  0  0  0  0  0  0  0  0  0  0
   23.0676   25.8287   36.1370 C   0  0  0  0  0  0  0  0  0  0  0  0
   22.2868   26.1508   35.1554 N   0  0  0  0  0  0  0  0  0  0  0  0
   20.9560   25.8686   35.5639 C   0  0  0  0  0  0  0  0  0  0  0  0
   20.9215   25.3902   36.8007 C   0  0  0  0  0  0  0  0  0  0  0  0
   19.6933   25.3117   37.6591 C   0  0  0  0  0  0  0  0  0  0  0  0
   19.4352   26.5845   38.3666 N   0  0  0  0  0  0  0  0  0  0  0  0
   18.9899   27.6612   37.4567 C   0  0  0  0  0  0  0  0  0  0  0  0
   20.5129   26.9658   39.3234 C   0  0  2  0  0  0  0  0  0  0  0  0
   20.1069   28.1924   40.1580 C   0  0  0  0  0  0  0  0  0  0  0  0
   21.9056   27.1793   38.6646 C   0  0  0  0  0  0  0  0  0  0  0  0
   22.5933   25.9464   38.5295 O   0  0  0  0  0  0  0  0  0  0  0  0
   22.3274   25.2494   37.3148 C   0  0  2  0  0  0  0  0  0  0  0  0
   22.6422   23.7461   37.5044 C   0  0  0  0  0  0  0  0  0  0  0  0
   24.1006   23.4626   37.8733 C   0  0  0  0  0  0  0  0  0  0  0  0
  1  2  1  0
  2  3  2  0
  2  4  1  0
  4  5  2  0
  5  6  1  0
  6  7  2  0
  7  8  1  0
  8  9  2  0
  9 10  1  0
 10 11  2  0
 11 12  1  0
 12 13  2  0
 13 14  1  0
  1 15  1  0
 15 16  2  0
 16 17  1  0
 17 18  2  0
 18 19  1  0
 19 20  1  0
 20 21  1  0
 20 22  1  0
 22 23  1  6
 22 24  1  0
 24 25  1  0
 25 26  1  0
 26 27  1  1
 27 28  1  0
 13  4  1  0
 26 15  1  0
 12  7  1  0
 26 18  1  0
M  END
>  <AAScore>  (1) 
206.845974037314

>  <RootName>  (1) 
./4ZLY/04_DeltaGEst/trajectory_00/rank_00/lead_0257

$$$$
