confid_17
     RDKit          3D

 28 31  0  0  0  0  0  0  0  0999 V2000
   25.3300   26.2600   34.7600 N   0  0  0  0  0  0  0  0  0  0  0  0
   26.1200   25.9200   33.6900 C   0  0  0  0  0  0  0  0  0  0  0  0
   25.6300   25.1100   32.9400 O   0  0  0  0  0  0  0  0  0  0  0  0
   27.5200   26.3800   33.4600 C   0  0  0  0  0  0  0  0  0  0  0  0
   28.1600   26.6300   34.6100 N   0  0  0  0  0  0  0  0  0  0  0  0
   29.4800   26.8500   34.5700 N   0  0  0  0  0  0  0  0  0  0  0  0
   30.1900   26.7800   33.4400 C   0  0  0  0  0  0  0  0  0  0  0  0
   31.5600   27.0500   33.5000 C   0  0  0  0  0  0  0  0  0  0  0  0
   32.2700   27.2400   32.3100 C   0  0  0  0  0  0  0  0  0  0  0  0
   31.6100   27.2500   31.0800 C   0  0  0  0  0  0  0  0  0  0  0  0
   30.2700   26.8700   31.0600 C   0  0  0  0  0  0  0  0  0  0  0  0
   29.5100   26.6900   32.2300 C   0  0  0  0  0  0  0  0  0  0  0  0
   28.1400   26.4100   32.2000 C   0  0  0  0  0  0  0  0  0  0  0  0
   27.4300   26.1300   31.0500 N   0  0  0  0  0  0  0  0  0  0  0  0
   26.5134   27.1332   30.4974 C   0  0  0  0  0  0  0  0  0  0  0  0
   26.6419   27.1717   28.9719 C   0  0  0  0  0  0  0  0  0  0  0  0
   26.6059   25.8214   28.3888 N   0  0  0  0  0  0  0  0  0  0  0  0
   26.6366   25.6855   26.9548 C   0  0  0  0  0  0  0  0  0  0  0  0
   27.2667   26.5344   26.2677 O   0  0  0  0  0  0  0  0  0  0  0  0
   25.9199   24.5925   26.2634 C   0  0  0  0  0  0  0  0  0  0  0  0
   24.7871   23.9292   26.7045 C   0  0  0  0  0  0  0  0  0  0  0  0
   24.3807   23.0579   25.7606 N   0  0  0  0  0  0  0  0  0  0  0  0
   25.2154   23.1490   24.7370 N   0  0  0  0  0  0  0  0  0  0  0  0
   25.0820   22.3542   23.5211 C   0  0  0  0  0  0  0  0  0  0  0  0
   26.1698   24.0656   25.0060 C   0  0  0  0  0  0  0  0  0  0  0  0
   27.2624   24.4788   24.0636 C   0  0  0  0  0  0  0  0  0  0  0  0
   26.5817   24.6374   29.2610 C   0  0  0  0  0  0  0  0  0  0  0  0
   27.5701   24.8097   30.4186 C   0  0  0  0  0  0  0  0  0  0  0  0
  1  2  1  0
  2  3  2  0
  2  4  1  0
  4  5  2  0
  5  6  1  0
  6  7  2  0
  7  8  1  0
  8  9  2  0
  9 10  1  0
 10 11  2  0
 11 12  1  0
 12 13  2  0
 13 14  1  0
 14 15  1  0
 15 16  1  0
 16 17  1  0
 17 18  1  0
 18 19  2  0
 18 20  1  0
 20 21  1  0
 21 22  2  0
 22 23  1  0
 23 24  1  0
 23 25  1  0
 25 26  1  0
 17 27  1  0
 27 28  1  0
 13  4  1  0
 28 14  1  0
 12  7  1  0
 25 20  2  0
M  END
>  <AAScore>  (1) 
17.64502079496042

>  <RootName>  (1) 
./4ZLY/04_DeltaGEst/trajectory_03/rank_01/lead_0205

$$$$
