confid_6
     RDKit          3D

 29 32  0  0  0  0  0  0  0  0999 V2000
   24.5500   26.3900   36.2500 N   0  0  0  0  0  0  0  0  0  0  0  0
   25.6000   26.1300   35.4000 C   0  0  0  0  0  0  0  0  0  0  0  0
   25.4300   25.4300   34.4200 O   0  0  0  0  0  0  0  0  0  0  0  0
   26.9800   26.6300   35.7100 C   0  0  0  0  0  0  0  0  0  0  0  0
   27.3200   26.8200   36.9800 N   0  0  0  0  0  0  0  0  0  0  0  0
   28.4700   27.4000   37.3100 N   0  0  0  0  0  0  0  0  0  0  0  0
   29.4000   27.6300   36.3700 C   0  0  0  0  0  0  0  0  0  0  0  0
   30.6600   28.0500   36.8000 C   0  0  0  0  0  0  0  0  0  0  0  0
   31.5700   28.3600   35.7800 C   0  0  0  0  0  0  0  0  0  0  0  0
   31.3700   28.1000   34.4300 C   0  0  0  0  0  0  0  0  0  0  0  0
   30.1200   27.5900   34.0500 C   0  0  0  0  0  0  0  0  0  0  0  0
   29.1500   27.3400   35.0300 C   0  0  0  0  0  0  0  0  0  0  0  0
   27.8800   26.8900   34.6600 C   0  0  0  0  0  0  0  0  0  0  0  0
   27.4800   26.6100   33.3700 N   0  0  0  0  0  0  0  0  0  0  0  0
   31.0178   28.2808   38.2220 C   0  0  0  0  0  0  0  0  0  0  0  0
   30.6288   27.5000   39.3132 C   0  0  0  0  0  0  0  0  0  0  0  0
   31.1510   27.9595   40.5283 C   0  0  0  0  0  0  0  0  0  0  0  0
   30.9502   27.2881   41.8521 C   0  0  0  0  0  0  0  0  0  0  0  0
   31.3805   28.2180   43.0080 C   0  0  0  0  0  0  0  0  0  0  0  0
   32.6774   28.8926   42.7517 N   0  0  0  0  0  0  0  0  0  0  0  0
   33.8035   27.9341   42.6882 C   0  0  0  0  0  0  0  0  0  0  0  0
   35.1091   28.6148   43.0203 C   0  0  0  0  0  0  0  0  0  0  0  0
   35.0895   29.6313   43.7685 O   0  0  0  0  0  0  0  0  0  0  0  0
   36.3760   28.0926   42.5626 N   0  0  0  0  0  0  0  0  0  0  0  0
   36.4464   26.8413   41.7999 C   0  0  0  0  0  0  0  0  0  0  0  0
   37.6058   28.8219   42.8889 C   0  0  0  0  0  0  0  0  0  0  0  0
   32.6138   29.7640   41.5521 C   0  0  0  0  0  0  0  0  0  0  0  0
   31.9779   29.0588   40.3928 C   0  0  0  0  0  0  0  0  0  0  0  0
   32.0347   29.5122   38.7782 S   0  0  0  0  0  0  0  0  0  0  0  0
  1  2  1  0
  2  3  2  0
  2  4  1  0
  4  5  2  0
  5  6  1  0
  6  7  2  0
  7  8  1  0
  8  9  2  0
  9 10  1  0
 10 11  2  0
 11 12  1  0
 12 13  2  0
 13 14  1  0
  8 15  1  0
 15 16  2  0
 16 17  1  0
 17 18  1  0
 18 19  1  0
 19 20  1  0
 20 21  1  0
 21 22  1  0
 22 23  2  0
 22 24  1  0
 24 25  1  0
 24 26  1  0
 20 27  1  0
 27 28  1  0
 28 29  1  0
 13  4  1  0
 29 15  1  0
 12  7  1  0
 28 17  2  0
M  END
>  <AAScore>  (1) 
329.9273471066388

>  <RootName>  (1) 
./4ZLY/04_DeltaGEst/trajectory_01/rank_01/lead_0125

$$$$
