confid_6
     RDKit          3D

 27 30  0  0  0  0  0  0  0  0999 V2000
   24.2000   26.2400   35.6900 N   0  0  0  0  0  0  0  0  0  0  0  0
   24.8500   26.2800   34.4800 C   0  0  0  0  0  0  0  0  0  0  0  0
   24.3100   25.7400   33.5400 O   0  0  0  0  0  0  0  0  0  0  0  0
   26.1800   26.9700   34.4700 C   0  0  0  0  0  0  0  0  0  0  0  0
   26.6500   27.6000   35.5500 N   0  0  0  0  0  0  0  0  0  0  0  0
   27.7900   28.2700   35.6200 N   0  0  0  0  0  0  0  0  0  0  0  0
   28.5400   28.3000   34.5100 C   0  0  0  0  0  0  0  0  0  0  0  0
   29.7700   28.9400   34.5600 C   0  0  0  0  0  0  0  0  0  0  0  0
   30.7000   28.8900   33.5000 C   0  0  0  0  0  0  0  0  0  0  0  0
   30.3700   28.1400   32.3700 C   0  0  0  0  0  0  0  0  0  0  0  0
   29.1200   27.5200   32.2800 C   0  0  0  0  0  0  0  0  0  0  0  0
   28.2100   27.6100   33.3300 C   0  0  0  0  0  0  0  0  0  0  0  0
   26.9700   26.9700   33.3100 C   0  0  0  0  0  0  0  0  0  0  0  0
   26.5300   26.2400   32.2200 N   0  0  0  0  0  0  0  0  0  0  0  0
   23.2080   25.2633   36.0523 C   0  0  0  0  0  0  0  0  0  0  0  0
   22.5091   25.4178   37.2075 N   0  0  0  0  0  0  0  0  0  0  0  0
   21.5821   24.5056   37.5961 C   0  0  0  0  0  0  0  0  0  0  0  0
   21.3394   23.3727   36.8124 C   0  0  0  0  0  0  0  0  0  0  0  0
   20.2573   22.3972   37.2070 C   0  0  0  0  0  0  0  0  0  0  0  0
   20.3715   21.0924   36.5114 N   0  0  0  0  0  0  0  0  0  0  0  0
   21.3646   20.2345   37.1954 C   0  0  0  0  0  0  0  0  0  0  0  0
   20.5884   21.2377   35.0356 C   0  0  0  0  0  0  0  0  0  0  0  0
   20.6661   19.8506   34.3495 C   0  0  0  0  0  0  0  0  0  0  0  0
   19.3811   21.9755   34.3991 C   0  0  0  0  0  0  0  0  0  0  0  0
   21.8920   22.0260   34.7361 C   0  0  0  0  0  0  0  0  0  0  0  0
   22.0556   23.2345   35.6127 C   0  0  0  0  0  0  0  0  0  0  0  0
   22.9816   24.1700   35.2740 N   0  0  0  0  0  0  0  0  0  0  0  0
  1  2  1  0
  2  3  2  0
  2  4  1  0
  4  5  2  0
  5  6  1  0
  6  7  2  0
  7  8  1  0
  8  9  2  0
  9 10  1  0
 10 11  2  0
 11 12  1  0
 12 13  2  0
 13 14  1  0
  1 15  1  0
 15 16  2  0
 16 17  1  0
 17 18  2  0
 18 19  1  0
 19 20  1  0
 20 21  1  0
 20 22  1  0
 22 23  1  0
 22 24  1  0
 22 25  1  0
 25 26  1  0
 26 27  2  0
 13  4  1  0
 27 15  1  0
 12  7  1  0
 26 18  1  0
M  END
>  <AAScore>  (1) 
1280.5132849935012

>  <RootName>  (1) 
./4ZLY/04_DeltaGEst/trajectory_04/rank_00/lead_0386

$$$$
