confid_14
     RDKit          3D

 26 28  0  0  0  0  0  0  0  0999 V2000
   24.5700   26.8800   35.5900 N   0  0  0  0  0  0  0  0  0  0  0  0
   25.5000   26.4000   34.6900 C   0  0  0  0  0  0  0  0  0  0  0  0
   25.1700   25.5200   33.9100 O   0  0  0  0  0  0  0  0  0  0  0  0
   26.8400   27.0200   34.7400 C   0  0  0  0  0  0  0  0  0  0  0  0
   27.3800   27.2800   35.9400 N   0  0  0  0  0  0  0  0  0  0  0  0
   28.6200   27.7400   36.0300 N   0  0  0  0  0  0  0  0  0  0  0  0
   29.3800   28.0000   34.9600 C   0  0  0  0  0  0  0  0  0  0  0  0
   30.6700   28.5000   35.1300 C   0  0  0  0  0  0  0  0  0  0  0  0
   31.5400   28.6100   34.0300 C   0  0  0  0  0  0  0  0  0  0  0  0
   31.0900   28.2200   32.7700 C   0  0  0  0  0  0  0  0  0  0  0  0
   29.8000   27.7000   32.6000 C   0  0  0  0  0  0  0  0  0  0  0  0
   28.9600   27.5500   33.7100 C   0  0  0  0  0  0  0  0  0  0  0  0
   27.6600   27.0300   33.5900 C   0  0  0  0  0  0  0  0  0  0  0  0
   27.1600   26.7400   32.3400 N   0  0  0  0  0  0  0  0  0  0  0  0
   33.1594   29.2667   34.2365 S   0  0  0  0  0  6  0  0  0  0  0  0
   33.6685   28.9325   35.6111 O   0  0  0  0  0  0  0  0  0  0  0  0
   34.0848   28.6605   33.2184 O   0  0  0  0  0  0  0  0  0  0  0  0
   33.1001   31.0368   34.0249 C   0  0  0  0  0  0  0  0  0  0  0  0
   34.4694   31.6317   34.1968 C   0  0  0  0  0  0  0  0  0  0  0  0
   35.3327   31.7529   33.0952 C   0  0  0  0  0  0  0  0  0  0  0  0
   36.6186   32.2771   33.2624 C   0  0  0  0  0  0  0  0  0  0  0  0
   37.0531   32.6753   34.5301 C   0  0  0  0  0  0  0  0  0  0  0  0
   36.2039   32.5468   35.6331 C   0  0  0  0  0  0  0  0  0  0  0  0
   36.6293   32.9264   36.8632 F   0  0  0  0  0  0  0  0  0  0  0  0
   34.9173   32.0230   35.4695 C   0  0  0  0  0  0  0  0  0  0  0  0
   37.4461   32.3953   32.1949 F   0  0  0  0  0  0  0  0  0  0  0  0
  1  2  1  0
  2  3  2  0
  2  4  1  0
  4  5  2  0
  5  6  1  0
  6  7  2  0
  7  8  1  0
  8  9  2  0
  9 10  1  0
 10 11  2  0
 11 12  1  0
 12 13  2  0
 13 14  1  0
  9 15  1  0
 15 16  2  0
 15 17  2  0
 15 18  1  0
 18 19  1  0
 19 20  2  0
 20 21  1  0
 21 22  2  0
 22 23  1  0
 23 24  1  0
 23 25  2  0
 21 26  1  0
 13  4  1  0
 25 19  1  0
 12  7  1  0
M  END
>  <AAScore>  (1) 
-5.844347989101042

>  <RootName>  (1) 
./4ZLY/04_DeltaGEst/trajectory_05/rank_01/lead_0166

$$$$
