confid_6
     RDKit          3D

 27 30  0  0  0  0  0  0  0  0999 V2000
   24.2000   26.2400   35.6900 N   0  0  0  0  0  0  0  0  0  0  0  0
   24.8500   26.2800   34.4800 C   0  0  0  0  0  0  0  0  0  0  0  0
   24.3100   25.7400   33.5400 O   0  0  0  0  0  0  0  0  0  0  0  0
   26.1800   26.9700   34.4700 C   0  0  0  0  0  0  0  0  0  0  0  0
   26.6500   27.6000   35.5500 N   0  0  0  0  0  0  0  0  0  0  0  0
   27.7900   28.2700   35.6200 N   0  0  0  0  0  0  0  0  0  0  0  0
   28.5400   28.3000   34.5100 C   0  0  0  0  0  0  0  0  0  0  0  0
   29.7700   28.9400   34.5600 C   0  0  0  0  0  0  0  0  0  0  0  0
   30.7000   28.8900   33.5000 C   0  0  0  0  0  0  0  0  0  0  0  0
   30.3700   28.1400   32.3700 C   0  0  0  0  0  0  0  0  0  0  0  0
   29.1200   27.5200   32.2800 C   0  0  0  0  0  0  0  0  0  0  0  0
   28.2100   27.6100   33.3300 C   0  0  0  0  0  0  0  0  0  0  0  0
   26.9700   26.9700   33.3100 C   0  0  0  0  0  0  0  0  0  0  0  0
   26.5300   26.2400   32.2200 N   0  0  0  0  0  0  0  0  0  0  0  0
   22.7745   26.0943   35.8408 C   0  0  0  0  0  0  0  0  0  0  0  0
   21.9440   26.2058   34.7651 N   0  0  0  0  0  0  0  0  0  0  0  0
   20.5950   26.0850   34.8775 C   0  0  0  0  0  0  0  0  0  0  0  0
   20.0155   25.8443   36.1240 C   0  0  0  0  0  0  0  0  0  0  0  0
   18.6253   25.7155   36.2357 O   0  0  0  0  0  0  0  0  0  0  0  0
   17.9790   25.3297   37.4536 C   0  0  1  0  0  0  0  0  0  0  0  0
   17.8065   23.8274   37.5312 C   0  0  0  0  0  0  0  0  0  0  0  0
   18.4551   22.9052   36.5389 C   0  0  0  0  0  0  0  0  0  0  0  0
   17.1198   23.3523   38.4235 O   0  0  0  0  0  0  0  0  0  0  0  0
   18.7575   25.8727   38.6667 C   0  0  0  0  0  0  0  0  0  0  0  0
   20.2357   25.4605   38.6087 C   0  0  0  0  0  0  0  0  0  0  0  0
   20.8385   25.7510   37.2586 C   0  0  0  0  0  0  0  0  0  0  0  0
   22.2267   25.8648   37.1115 C   0  0  0  0  0  0  0  0  0  0  0  0
  1  2  1  0
  2  3  2  0
  2  4  1  0
  4  5  2  0
  5  6  1  0
  6  7  2  0
  7  8  1  0
  8  9  2  0
  9 10  1  0
 10 11  2  0
 11 12  1  0
 12 13  2  0
 13 14  1  0
  1 15  1  0
 15 16  2  0
 16 17  1  0
 17 18  2  0
 18 19  1  0
 19 20  1  0
 20 21  1  1
 21 22  1  0
 21 23  2  0
 20 24  1  0
 24 25  1  0
 25 26  1  0
 26 27  2  0
 13  4  1  0
 27 15  1  0
 12  7  1  0
 26 18  1  0
M  END
>  <AAScore>  (1) 
97.77733618268454

>  <RootName>  (1) 
./4ZLY/04_DeltaGEst/trajectory_04/rank_00/lead_0310

$$$$
