confid_10
     RDKit          3D

 27 30  0  0  0  0  0  0  0  0999 V2000
   24.2000   26.2400   35.6900 N   0  0  0  0  0  0  0  0  0  0  0  0
   24.8500   26.2800   34.4800 C   0  0  0  0  0  0  0  0  0  0  0  0
   24.3100   25.7400   33.5400 O   0  0  0  0  0  0  0  0  0  0  0  0
   26.1800   26.9700   34.4700 C   0  0  0  0  0  0  0  0  0  0  0  0
   26.6500   27.6000   35.5500 N   0  0  0  0  0  0  0  0  0  0  0  0
   27.7900   28.2700   35.6200 N   0  0  0  0  0  0  0  0  0  0  0  0
   28.5400   28.3000   34.5100 C   0  0  0  0  0  0  0  0  0  0  0  0
   29.7700   28.9400   34.5600 C   0  0  0  0  0  0  0  0  0  0  0  0
   30.7000   28.8900   33.5000 C   0  0  0  0  0  0  0  0  0  0  0  0
   30.3700   28.1400   32.3700 C   0  0  0  0  0  0  0  0  0  0  0  0
   29.1200   27.5200   32.2800 C   0  0  0  0  0  0  0  0  0  0  0  0
   28.2100   27.6100   33.3300 C   0  0  0  0  0  0  0  0  0  0  0  0
   26.9700   26.9700   33.3100 C   0  0  0  0  0  0  0  0  0  0  0  0
   26.5300   26.2400   32.2200 N   0  0  0  0  0  0  0  0  0  0  0  0
   23.2325   25.2378   36.0597 C   0  0  0  0  0  0  0  0  0  0  0  0
   23.0612   24.1219   35.3014 N   0  0  0  0  0  0  0  0  0  0  0  0
   22.1676   23.1544   35.6288 C   0  0  0  0  0  0  0  0  0  0  0  0
   21.3852   23.2648   36.7900 C   0  0  0  0  0  0  0  0  0  0  0  0
   20.3989   22.1585   37.1080 C   0  0  0  0  0  0  0  0  0  0  0  0
   18.9663   22.4795   36.6542 C   0  0  0  0  0  0  0  0  0  0  0  0
   18.3011   23.4196   37.5868 N   0  0  0  0  0  0  0  0  0  0  0  0
   16.8468   23.1894   37.6051 C   0  0  0  0  0  0  0  0  0  0  0  0
   18.6081   24.8380   37.2766 C   0  0  0  0  0  0  0  0  0  0  0  0
   19.4029   25.4726   38.4249 C   0  0  0  0  0  0  0  0  0  0  0  0
   20.6666   24.6866   38.8059 C   0  0  0  0  0  0  0  0  0  0  0  0
   21.5432   24.4166   37.6027 C   0  0  0  0  0  0  0  0  0  0  0  0
   22.4713   25.3990   37.2225 C   0  0  0  0  0  0  0  0  0  0  0  0
  1  2  1  0
  2  3  2  0
  2  4  1  0
  4  5  2  0
  5  6  1  0
  6  7  2  0
  7  8  1  0
  8  9  2  0
  9 10  1  0
 10 11  2  0
 11 12  1  0
 12 13  2  0
 13 14  1  0
  1 15  1  0
 15 16  2  0
 16 17  1  0
 17 18  2  0
 18 19  1  0
 19 20  1  0
 20 21  1  0
 21 22  1  0
 21 23  1  0
 23 24  1  0
 24 25  1  0
 25 26  1  0
 26 27  2  0
 13  4  1  0
 27 15  1  0
 12  7  1  0
 26 18  1  0
M  END
>  <AAScore>  (1) 
852.9927491149792

>  <RootName>  (1) 
./4ZLY/04_DeltaGEst/trajectory_04/rank_00/lead_0456

$$$$
