confid_17
     RDKit          3D

 30 34  0  0  0  0  0  0  0  0999 V2000
   25.3300   26.2600   34.7600 N   0  0  0  0  0  0  0  0  0  0  0  0
   26.1200   25.9200   33.6900 C   0  0  0  0  0  0  0  0  0  0  0  0
   25.6300   25.1100   32.9400 O   0  0  0  0  0  0  0  0  0  0  0  0
   27.5200   26.3800   33.4600 C   0  0  0  0  0  0  0  0  0  0  0  0
   28.1600   26.6300   34.6100 N   0  0  0  0  0  0  0  0  0  0  0  0
   29.4800   26.8500   34.5700 N   0  0  0  0  0  0  0  0  0  0  0  0
   30.1900   26.7800   33.4400 C   0  0  0  0  0  0  0  0  0  0  0  0
   31.5600   27.0500   33.5000 C   0  0  0  0  0  0  0  0  0  0  0  0
   32.2700   27.2400   32.3100 C   0  0  0  0  0  0  0  0  0  0  0  0
   31.6100   27.2500   31.0800 C   0  0  0  0  0  0  0  0  0  0  0  0
   30.2700   26.8700   31.0600 C   0  0  0  0  0  0  0  0  0  0  0  0
   29.5100   26.6900   32.2300 C   0  0  0  0  0  0  0  0  0  0  0  0
   28.1400   26.4100   32.2000 C   0  0  0  0  0  0  0  0  0  0  0  0
   27.4300   26.1300   31.0500 N   0  0  0  0  0  0  0  0  0  0  0  0
   23.9535   25.8800   34.9613 C   0  0  0  0  0  0  0  0  0  0  0  0
   23.2249   25.5573   33.9286 N   0  0  0  0  0  0  0  0  0  0  0  0
   21.8538   25.1565   33.8285 C   0  0  0  0  0  0  0  0  0  0  0  0
   20.8742   25.8166   34.4297 C   0  0  0  0  0  0  0  0  0  0  0  0
   19.3865   25.9562   34.3002 C   0  0  0  0  0  0  0  0  0  0  0  0
   19.2747   26.9702   35.2460 O   0  0  0  0  0  0  0  0  0  0  0  0
   20.6479   26.8801   35.4606 C   0  0  1  0  0  0  0  0  0  0  0  0
   20.9190   26.3794   36.8788 C   0  0  0  0  0  0  0  0  0  0  0  0
   22.3359   25.9575   37.0912 C   0  0  0  0  0  0  0  0  0  0  0  0
   23.5035   25.7529   36.3644 C   0  0  0  0  0  0  0  0  0  0  0  0
   24.2621   25.3807   37.5667 N   0  0  0  0  0  0  0  0  0  0  0  0
   23.0575   25.5484   38.2564 C   0  0  1  0  0  0  0  0  0  0  0  0
   23.1529   26.6519   39.3198 C   0  0  0  0  0  0  0  0  0  0  0  0
   23.9919   26.2126   40.3671 O   0  0  0  0  0  0  0  0  0  0  0  0
   24.0352   27.1944   41.3778 C   0  0  0  0  0  0  0  0  0  0  0  0
   25.6125   24.9301   37.8662 C   0  0  0  0  0  0  0  0  0  0  0  0
  1  2  1  0
  2  3  2  0
  2  4  1  0
  4  5  2  0
  5  6  1  0
  6  7  2  0
  7  8  1  0
  8  9  2  0
  9 10  1  0
 10 11  2  0
 11 12  1  0
 12 13  2  0
 13 14  1  0
  1 15  1  0
 15 16  2  0
 16 17  1  0
 17 18  2  0
 18 19  1  0
 19 20  1  0
 20 21  1  0
 21 22  1  1
 22 23  1  0
 23 24  2  0
 24 25  1  0
 25 26  1  0
 26 27  1  1
 27 28  1  0
 28 29  1  0
 25 30  1  0
 13  4  1  0
 24 15  1  0
 12  7  1  0
 21 18  1  0
 26 23  1  0
M  END
>  <AAScore>  (1) 
771.6824571904526

>  <RootName>  (1) 
./4ZLY/04_DeltaGEst/trajectory_03/rank_00/lead_0264

$$$$
