confid_13
     RDKit          3D

 28 31  0  0  0  0  0  0  0  0999 V2000
   24.6900   26.1200   35.5300 N   0  0  0  0  0  0  0  0  0  0  0  0
   25.6600   25.6700   34.6600 C   0  0  0  0  0  0  0  0  0  0  0  0
   25.2400   25.0100   33.7200 O   0  0  0  0  0  0  0  0  0  0  0  0
   27.0300   26.2200   34.8800 C   0  0  0  0  0  0  0  0  0  0  0  0
   27.3500   26.7300   36.0700 N   0  0  0  0  0  0  0  0  0  0  0  0
   28.5700   27.1800   36.3300 N   0  0  0  0  0  0  0  0  0  0  0  0
   29.5300   27.1100   35.3900 C   0  0  0  0  0  0  0  0  0  0  0  0
   30.8300   27.5700   35.6500 C   0  0  0  0  0  0  0  0  0  0  0  0
   31.8500   27.5400   34.6900 C   0  0  0  0  0  0  0  0  0  0  0  0
   31.5100   27.1200   33.4000 C   0  0  0  0  0  0  0  0  0  0  0  0
   30.2200   26.6300   33.1100 C   0  0  0  0  0  0  0  0  0  0  0  0
   29.2400   26.6600   34.1000 C   0  0  0  0  0  0  0  0  0  0  0  0
   27.9300   26.2600   33.8100 C   0  0  0  0  0  0  0  0  0  0  0  0
   27.5200   25.7100   32.6100 N   0  0  0  0  0  0  0  0  0  0  0  0
   31.1486   28.0507   36.9618 N   0  0  0  0  0  0  0  0  0  0  0  0
   31.1223   29.4907   37.2373 C   0  0  0  0  0  0  0  0  0  0  0  0
   30.3464   29.7534   38.5325 C   0  0  0  0  0  0  0  0  0  0  0  0
   30.7264   28.8015   39.5848 N   0  0  0  0  0  0  0  0  0  0  0  0
   29.9826   28.7850   40.8095 C   0  0  0  0  0  0  0  0  0  0  0  0
   28.8889   27.9212   40.9315 C   0  0  0  0  0  0  0  0  0  0  0  0
   28.1480   27.9070   42.1181 C   0  0  0  0  0  0  0  0  0  0  0  0
   26.9625   27.0061   42.2568 C   0  0  0  0  0  0  0  0  0  0  0  0
   28.4841   28.7467   43.1340 N   0  0  0  0  0  0  0  0  0  0  0  0
   29.5424   29.5945   43.0452 C   0  0  0  0  0  0  0  0  0  0  0  0
   30.3319   29.6249   41.8858 C   0  0  0  0  0  0  0  0  0  0  0  0
   31.4833   30.5870   41.7885 C   0  0  0  0  0  0  0  0  0  0  0  0
   31.7608   27.7890   39.3479 C   0  0  0  0  0  0  0  0  0  0  0  0
   31.5004   27.0856   38.0122 C   0  0  0  0  0  0  0  0  0  0  0  0
  1  2  1  0
  2  3  2  0
  2  4  1  0
  4  5  2  0
  5  6  1  0
  6  7  2  0
  7  8  1  0
  8  9  2  0
  9 10  1  0
 10 11  2  0
 11 12  1  0
 12 13  2  0
 13 14  1  0
  8 15  1  0
 15 16  1  0
 16 17  1  0
 17 18  1  0
 18 19  1  0
 19 20  2  0
 20 21  1  0
 21 22  1  0
 21 23  2  0
 23 24  1  0
 24 25  2  0
 25 26  1  0
 18 27  1  0
 27 28  1  0
 13  4  1  0
 28 15  1  0
 12  7  1  0
 25 19  1  0
M  END
>  <AAScore>  (1) 
-0.4867458090899473

>  <RootName>  (1) 
./4ZLY/04_DeltaGEst/trajectory_02/rank_01/lead_0096

$$$$
