confid_7
     RDKit          3D

 29 33  0  0  0  0  0  0  0  0999 V2000
   24.2000   26.2400   35.6900 N   0  0  0  0  0  0  0  0  0  0  0  0
   24.8500   26.2800   34.4800 C   0  0  0  0  0  0  0  0  0  0  0  0
   24.3100   25.7400   33.5400 O   0  0  0  0  0  0  0  0  0  0  0  0
   26.1800   26.9700   34.4700 C   0  0  0  0  0  0  0  0  0  0  0  0
   26.6500   27.6000   35.5500 N   0  0  0  0  0  0  0  0  0  0  0  0
   27.7900   28.2700   35.6200 N   0  0  0  0  0  0  0  0  0  0  0  0
   28.5400   28.3000   34.5100 C   0  0  0  0  0  0  0  0  0  0  0  0
   29.7700   28.9400   34.5600 C   0  0  0  0  0  0  0  0  0  0  0  0
   30.7000   28.8900   33.5000 C   0  0  0  0  0  0  0  0  0  0  0  0
   30.3700   28.1400   32.3700 C   0  0  0  0  0  0  0  0  0  0  0  0
   29.1200   27.5200   32.2800 C   0  0  0  0  0  0  0  0  0  0  0  0
   28.2100   27.6100   33.3300 C   0  0  0  0  0  0  0  0  0  0  0  0
   26.9700   26.9700   33.3100 C   0  0  0  0  0  0  0  0  0  0  0  0
   26.5300   26.2400   32.2200 N   0  0  0  0  0  0  0  0  0  0  0  0
   30.1442   29.6730   35.7388 N   0  0  0  0  0  0  0  0  0  0  0  0
   31.2422   29.1877   36.5845 C   0  0  0  0  0  0  0  0  0  0  0  0
   32.2596   30.3116   36.8235 C   0  0  0  0  0  0  0  0  0  0  0  0
   31.5947   31.5983   37.0893 N   0  0  0  0  0  0  0  0  0  0  0  0
   32.3727   32.8116   37.1011 C   0  0  0  0  0  0  0  0  0  0  0  0
   33.5873   32.8781   37.8285 C   0  0  0  0  0  0  0  0  0  0  0  0
   34.3547   34.0545   37.8330 C   0  0  0  0  0  0  0  0  0  0  0  0
   33.8960   35.1493   37.1025 C   0  0  0  0  0  0  0  0  0  0  0  0
   34.5199   36.4883   36.9420 C   0  0  0  0  0  0  0  0  0  0  0  0
   33.5191   37.2174   36.0114 C   0  0  0  0  0  0  0  0  0  0  0  0
   32.4810   36.2758   35.7399 O   0  0  0  0  0  0  0  0  0  0  0  0
   32.7340   35.0894   36.3921 C   0  0  0  0  0  0  0  0  0  0  0  0
   31.9473   33.9402   36.3652 C   0  0  0  0  0  0  0  0  0  0  0  0
   30.1331   31.6413   37.2374 C   0  0  0  0  0  0  0  0  0  0  0  0
   29.4780   30.9490   36.0397 C   0  0  0  0  0  0  0  0  0  0  0  0
  1  2  1  0
  2  3  2  0
  2  4  1  0
  4  5  2  0
  5  6  1  0
  6  7  2  0
  7  8  1  0
  8  9  2  0
  9 10  1  0
 10 11  2  0
 11 12  1  0
 12 13  2  0
 13 14  1  0
  8 15  1  0
 15 16  1  0
 16 17  1  0
 17 18  1  0
 18 19  1  0
 19 20  2  0
 20 21  1  0
 21 22  2  0
 22 23  1  0
 23 24  1  0
 24 25  1  0
 25 26  1  0
 26 27  2  0
 18 28  1  0
 28 29  1  0
 13  4  1  0
 29 15  1  0
 12  7  1  0
 27 19  1  0
 26 22  1  0
M  END
>  <AAScore>  (1) 
-8.151677962802996

>  <RootName>  (1) 
./4ZLY/04_DeltaGEst/trajectory_04/rank_01/lead_0470

$$$$
