confid_14
     RDKit          3D

 27 30  0  0  0  0  0  0  0  0999 V2000
   24.6900   26.1200   35.5300 N   0  0  0  0  0  0  0  0  0  0  0  0
   25.6600   25.6700   34.6600 C   0  0  0  0  0  0  0  0  0  0  0  0
   25.2400   25.0100   33.7200 O   0  0  0  0  0  0  0  0  0  0  0  0
   27.0300   26.2200   34.8800 C   0  0  0  0  0  0  0  0  0  0  0  0
   27.3500   26.7300   36.0700 N   0  0  0  0  0  0  0  0  0  0  0  0
   28.5700   27.1800   36.3300 N   0  0  0  0  0  0  0  0  0  0  0  0
   29.5300   27.1100   35.3900 C   0  0  0  0  0  0  0  0  0  0  0  0
   30.8300   27.5700   35.6500 C   0  0  0  0  0  0  0  0  0  0  0  0
   31.8500   27.5400   34.6900 C   0  0  0  0  0  0  0  0  0  0  0  0
   31.5100   27.1200   33.4000 C   0  0  0  0  0  0  0  0  0  0  0  0
   30.2200   26.6300   33.1100 C   0  0  0  0  0  0  0  0  0  0  0  0
   29.2400   26.6600   34.1000 C   0  0  0  0  0  0  0  0  0  0  0  0
   27.9300   26.2600   33.8100 C   0  0  0  0  0  0  0  0  0  0  0  0
   27.5200   25.7100   32.6100 N   0  0  0  0  0  0  0  0  0  0  0  0
   23.5107   25.3756   35.8781 C   0  0  0  0  0  0  0  0  0  0  0  0
   23.3484   24.0922   35.4693 N   0  0  0  0  0  0  0  0  0  0  0  0
   22.2489   23.3802   35.8153 C   0  0  0  0  0  0  0  0  0  0  0  0
   21.2407   23.9516   36.6072 C   0  0  0  0  0  0  0  0  0  0  0  0
   20.0531   23.0573   36.9451 C   0  0  0  0  0  0  0  0  0  0  0  0
   18.8799   23.7483   37.5174 N   0  0  0  0  0  0  0  0  0  0  0  0
   17.7628   22.8025   37.6713 C   0  0  0  0  0  0  0  0  0  0  0  0
   18.4811   24.9205   36.7190 C   0  0  0  0  0  0  0  0  0  0  0  0
   19.0534   26.1902   37.3551 C   0  0  0  0  0  0  0  0  0  0  0  0
   20.4786   26.0469   37.9424 C   0  0  2  0  0  0  0  0  0  0  0  0
   21.4345   25.2927   37.0419 C   0  0  0  0  0  0  0  0  0  0  0  0
   22.5642   25.9504   36.6612 N   0  0  0  0  0  0  0  0  0  0  0  0
   20.5129   25.5074   39.3825 C   0  0  0  0  0  0  0  0  0  0  0  0
  1  2  1  0
  2  3  2  0
  2  4  1  0
  4  5  2  0
  5  6  1  0
  6  7  2  0
  7  8  1  0
  8  9  2  0
  9 10  1  0
 10 11  2  0
 11 12  1  0
 12 13  2  0
 13 14  1  0
  1 15  1  0
 15 16  2  0
 16 17  1  0
 17 18  2  0
 18 19  1  0
 19 20  1  0
 20 21  1  0
 20 22  1  0
 22 23  1  0
 23 24  1  0
 24 25  1  0
 25 26  2  0
 24 27  1  1
 13  4  1  0
 26 15  1  0
 12  7  1  0
 25 18  1  0
M  END
>  <AAScore>  (1) 
71928.69939944858

>  <RootName>  (1) 
./4ZLY/04_DeltaGEst/trajectory_02/rank_00/lead_0189

$$$$
