confid_15
     RDKit          3D

 28 30  0  0  0  0  0  0  0  0999 V2000
   24.5700   26.8800   35.5900 N   0  0  0  0  0  0  0  0  0  0  0  0
   25.5000   26.4000   34.6900 C   0  0  0  0  0  0  0  0  0  0  0  0
   25.1700   25.5200   33.9100 O   0  0  0  0  0  0  0  0  0  0  0  0
   26.8400   27.0200   34.7400 C   0  0  0  0  0  0  0  0  0  0  0  0
   27.3800   27.2800   35.9400 N   0  0  0  0  0  0  0  0  0  0  0  0
   28.6200   27.7400   36.0300 N   0  0  0  0  0  0  0  0  0  0  0  0
   29.3800   28.0000   34.9600 C   0  0  0  0  0  0  0  0  0  0  0  0
   30.6700   28.5000   35.1300 C   0  0  0  0  0  0  0  0  0  0  0  0
   31.5400   28.6100   34.0300 C   0  0  0  0  0  0  0  0  0  0  0  0
   31.0900   28.2200   32.7700 C   0  0  0  0  0  0  0  0  0  0  0  0
   29.8000   27.7000   32.6000 C   0  0  0  0  0  0  0  0  0  0  0  0
   28.9600   27.5500   33.7100 C   0  0  0  0  0  0  0  0  0  0  0  0
   27.6600   27.0300   33.5900 C   0  0  0  0  0  0  0  0  0  0  0  0
   27.1600   26.7400   32.3400 N   0  0  0  0  0  0  0  0  0  0  0  0
   33.1961   29.1812   34.2508 S   0  0  0  0  0  6  0  0  0  0  0  0
   33.2075   30.2816   35.2750 O   0  0  0  0  0  0  0  0  0  0  0  0
   33.7057   29.7414   32.9522 O   0  0  0  0  0  0  0  0  0  0  0  0
   34.2949   27.8572   34.7815 C   0  0  2  0  0  0  0  0  0  0  0  0
   34.2032   26.6209   33.8868 C   0  0  0  0  0  0  0  0  0  0  0  0
   34.3185   25.4604   34.7797 N   0  0  0  0  0  0  0  0  0  0  0  0
   33.8594   24.1215   34.3037 C   0  0  2  0  0  0  0  0  0  0  0  0
   35.0767   23.2410   33.9204 C   0  0  0  0  0  0  0  0  0  0  0  0
   36.1215   23.8626   32.9743 C   0  0  0  0  0  0  0  0  0  0  0  0
   35.6395   24.0147   31.5324 C   0  0  0  0  0  0  0  0  0  0  0  0
   32.7443   24.1045   33.2169 C   0  0  0  0  0  0  0  0  0  0  0  0
   31.3745   24.5174   33.7618 C   0  0  0  0  0  0  0  0  0  0  0  0
   33.7337   25.8694   36.0578 C   0  0  0  0  0  0  0  0  0  0  0  0
   33.9828   27.3629   36.1935 C   0  0  0  0  0  0  0  0  0  0  0  0
  1  2  1  0
  2  3  2  0
  2  4  1  0
  4  5  2  0
  5  6  1  0
  6  7  2  0
  7  8  1  0
  8  9  2  0
  9 10  1  0
 10 11  2  0
 11 12  1  0
 12 13  2  0
 13 14  1  0
  9 15  1  0
 15 16  2  0
 15 17  2  0
 18 15  1  6
 18 19  1  0
 19 20  1  0
 20 21  1  0
 21 22  1  6
 22 23  1  0
 23 24  1  0
 21 25  1  0
 25 26  1  0
 20 27  1  0
 27 28  1  0
 13  4  1  0
 28 18  1  0
 12  7  1  0
M  END
>  <AAScore>  (1) 
315.8350120405284

>  <RootName>  (1) 
./4ZLY/04_DeltaGEst/trajectory_05/rank_01/lead_0230

$$$$
