confid_18
     RDKit          3D

 28 31  0  0  0  0  0  0  0  0999 V2000
   24.5500   26.3900   36.2500 N   0  0  0  0  0  0  0  0  0  0  0  0
   25.6000   26.1300   35.4000 C   0  0  0  0  0  0  0  0  0  0  0  0
   25.4300   25.4300   34.4200 O   0  0  0  0  0  0  0  0  0  0  0  0
   26.9800   26.6300   35.7100 C   0  0  0  0  0  0  0  0  0  0  0  0
   27.3200   26.8200   36.9800 N   0  0  0  0  0  0  0  0  0  0  0  0
   28.4700   27.4000   37.3100 N   0  0  0  0  0  0  0  0  0  0  0  0
   29.4000   27.6300   36.3700 C   0  0  0  0  0  0  0  0  0  0  0  0
   30.6600   28.0500   36.8000 C   0  0  0  0  0  0  0  0  0  0  0  0
   31.5700   28.3600   35.7800 C   0  0  0  0  0  0  0  0  0  0  0  0
   31.3700   28.1000   34.4300 C   0  0  0  0  0  0  0  0  0  0  0  0
   30.1200   27.5900   34.0500 C   0  0  0  0  0  0  0  0  0  0  0  0
   29.1500   27.3400   35.0300 C   0  0  0  0  0  0  0  0  0  0  0  0
   27.8800   26.8900   34.6600 C   0  0  0  0  0  0  0  0  0  0  0  0
   27.4800   26.6100   33.3700 N   0  0  0  0  0  0  0  0  0  0  0  0
   23.2092   25.8918   36.0950 C   0  0  0  0  0  0  0  0  0  0  0  0
   22.8766   25.0690   35.0673 N   0  0  0  0  0  0  0  0  0  0  0  0
   21.6130   24.6001   34.9239 C   0  0  0  0  0  0  0  0  0  0  0  0
   20.6114   24.9587   35.8377 C   0  0  0  0  0  0  0  0  0  0  0  0
   19.2349   24.3612   35.6640 C   0  0  0  0  0  0  0  0  0  0  0  0
   19.1693   22.9087   36.1866 C   0  0  0  0  0  0  0  0  0  0  0  0
   18.3136   22.8336   37.3956 N   0  0  0  0  0  0  0  0  0  0  0  0
   17.3158   21.7580   37.2723 C   0  0  0  0  0  0  0  0  0  0  0  0
   19.0900   22.6552   38.6451 C   0  0  0  0  0  0  0  0  0  0  0  0
   20.0097   23.8513   38.9529 C   0  0  0  0  0  0  0  0  0  0  0  0
   19.2837   25.2140   38.8152 C   0  0  0  0  0  0  0  0  0  0  0  0
   20.0052   26.2927   37.9709 C   0  0  0  0  0  0  0  0  0  0  0  0
   20.9738   25.8086   36.9117 C   0  0  0  0  0  0  0  0  0  0  0  0
   22.2593   26.2480   36.9972 N   0  0  0  0  0  0  0  0  0  0  0  0
  1  2  1  0
  2  3  2  0
  2  4  1  0
  4  5  2  0
  5  6  1  0
  6  7  2  0
  7  8  1  0
  8  9  2  0
  9 10  1  0
 10 11  2  0
 11 12  1  0
 12 13  2  0
 13 14  1  0
  1 15  1  0
 15 16  2  0
 16 17  1  0
 17 18  2  0
 18 19  1  0
 19 20  1  0
 20 21  1  0
 21 22  1  0
 21 23  1  0
 23 24  1  0
 24 25  1  0
 25 26  1  0
 26 27  1  0
 27 28  2  0
 13  4  1  0
 28 15  1  0
 12  7  1  0
 27 18  1  0
M  END
>  <AAScore>  (1) 
2472.569711683813

>  <RootName>  (1) 
./4ZLY/04_DeltaGEst/trajectory_01/rank_00/lead_0448

$$$$
