confid_9
     RDKit          3D

 29 32  0  0  0  0  0  0  0  0999 V2000
   25.3300   26.2600   34.7600 N   0  0  0  0  0  0  0  0  0  0  0  0
   26.1200   25.9200   33.6900 C   0  0  0  0  0  0  0  0  0  0  0  0
   25.6300   25.1100   32.9400 O   0  0  0  0  0  0  0  0  0  0  0  0
   27.5200   26.3800   33.4600 C   0  0  0  0  0  0  0  0  0  0  0  0
   28.1600   26.6300   34.6100 N   0  0  0  0  0  0  0  0  0  0  0  0
   29.4800   26.8500   34.5700 N   0  0  0  0  0  0  0  0  0  0  0  0
   30.1900   26.7800   33.4400 C   0  0  0  0  0  0  0  0  0  0  0  0
   31.5600   27.0500   33.5000 C   0  0  0  0  0  0  0  0  0  0  0  0
   32.2700   27.2400   32.3100 C   0  0  0  0  0  0  0  0  0  0  0  0
   31.6100   27.2500   31.0800 C   0  0  0  0  0  0  0  0  0  0  0  0
   30.2700   26.8700   31.0600 C   0  0  0  0  0  0  0  0  0  0  0  0
   29.5100   26.6900   32.2300 C   0  0  0  0  0  0  0  0  0  0  0  0
   28.1400   26.4100   32.2000 C   0  0  0  0  0  0  0  0  0  0  0  0
   27.4300   26.1300   31.0500 N   0  0  0  0  0  0  0  0  0  0  0  0
   27.5897   24.8188   30.4052 C   0  0  0  0  0  0  0  0  0  0  0  0
   26.7026   24.6973   29.1625 C   0  0  0  0  0  0  0  0  0  0  0  0
   26.7956   25.9186   28.3490 N   0  0  0  0  0  0  0  0  0  0  0  0
   26.8492   25.8650   26.9079 C   0  0  0  0  0  0  0  0  0  0  0  0
   26.2540   26.7488   26.2332 O   0  0  0  0  0  0  0  0  0  0  0  0
   27.6695   24.8389   26.1637 C   0  0  0  0  0  0  0  0  0  0  0  0
   27.0641   24.2374   24.9500 N   0  0  0  0  0  0  0  0  0  0  0  0
   26.0943   23.1362   25.1798 C   0  0  0  0  0  0  0  0  0  0  0  0
   24.8694   23.6216   25.9820 C   0  0  0  0  0  0  0  0  0  0  0  0
   26.7538   21.9362   25.8932 C   0  0  0  0  0  0  0  0  0  0  0  0
   25.5885   22.6598   23.8014 C   0  0  0  0  0  0  0  0  0  0  0  0
   29.0391   25.4646   25.8428 C   0  0  0  0  0  0  0  0  0  0  0  0
   28.9637   24.2344   26.7162 C   0  0  0  0  0  0  0  0  0  0  0  0
   26.6627   27.2358   28.9940 C   0  0  0  0  0  0  0  0  0  0  0  0
   26.4891   27.1183   30.5122 C   0  0  0  0  0  0  0  0  0  0  0  0
  1  2  1  0
  2  3  2  0
  2  4  1  0
  4  5  2  0
  5  6  1  0
  6  7  2  0
  7  8  1  0
  8  9  2  0
  9 10  1  0
 10 11  2  0
 11 12  1  0
 12 13  2  0
 13 14  1  0
 14 15  1  0
 15 16  1  0
 16 17  1  0
 17 18  1  0
 18 19  2  0
 18 20  1  0
 20 21  1  0
 21 22  1  0
 22 23  1  0
 22 24  1  0
 22 25  1  0
 20 26  1  0
 26 27  1  0
 17 28  1  0
 28 29  1  0
 13  4  1  0
 29 14  1  0
 12  7  1  0
 27 20  1  0
M  END
>  <AAScore>  (1) 
43.35077169193175

>  <RootName>  (1) 
./4ZLY/04_DeltaGEst/trajectory_03/rank_01/lead_0452

$$$$
