confid_13
     RDKit          3D

 27 30  0  0  0  0  0  0  0  0999 V2000
   24.6900   26.1200   35.5300 N   0  0  0  0  0  0  0  0  0  0  0  0
   25.6600   25.6700   34.6600 C   0  0  0  0  0  0  0  0  0  0  0  0
   25.2400   25.0100   33.7200 O   0  0  0  0  0  0  0  0  0  0  0  0
   27.0300   26.2200   34.8800 C   0  0  0  0  0  0  0  0  0  0  0  0
   27.3500   26.7300   36.0700 N   0  0  0  0  0  0  0  0  0  0  0  0
   28.5700   27.1800   36.3300 N   0  0  0  0  0  0  0  0  0  0  0  0
   29.5300   27.1100   35.3900 C   0  0  0  0  0  0  0  0  0  0  0  0
   30.8300   27.5700   35.6500 C   0  0  0  0  0  0  0  0  0  0  0  0
   31.8500   27.5400   34.6900 C   0  0  0  0  0  0  0  0  0  0  0  0
   31.5100   27.1200   33.4000 C   0  0  0  0  0  0  0  0  0  0  0  0
   30.2200   26.6300   33.1100 C   0  0  0  0  0  0  0  0  0  0  0  0
   29.2400   26.6600   34.1000 C   0  0  0  0  0  0  0  0  0  0  0  0
   27.9300   26.2600   33.8100 C   0  0  0  0  0  0  0  0  0  0  0  0
   27.5200   25.7100   32.6100 N   0  0  0  0  0  0  0  0  0  0  0  0
   31.1631   28.0704   36.9531 N   0  0  0  0  0  0  0  0  0  0  0  0
   32.3656   28.5974   37.6234 C   0  0  0  0  0  0  0  0  0  0  0  0
   31.7236   28.8374   38.9607 C   0  0  0  0  0  0  0  0  0  0  0  0
   31.6413   30.2684   39.3258 N   0  0  0  0  0  0  0  0  0  0  0  0
   30.7198   30.4426   40.4676 C   0  0  0  0  0  0  0  0  0  0  0  0
   30.5562   31.9296   40.7991 C   0  0  0  0  0  0  0  0  0  0  0  0
   31.9151   32.5895   41.1335 C   0  0  0  0  0  0  0  0  0  0  0  0
   31.7692   34.1321   41.3473 C   0  0  0  0  0  0  0  0  0  0  0  0
   33.1175   34.7950   41.6870 C   0  0  0  0  0  0  0  0  0  0  0  0
   30.7585   34.4650   42.4604 C   0  0  0  0  0  0  0  0  0  0  0  0
   32.9281   32.2641   40.0103 C   0  0  0  0  0  0  0  0  0  0  0  0
   32.9782   30.7615   39.7169 C   0  0  0  0  0  0  0  0  0  0  0  0
   30.5031   28.3286   38.2467 C   0  0  0  0  0  0  0  0  0  0  0  0
  1  2  1  0
  2  3  2  0
  2  4  1  0
  4  5  2  0
  5  6  1  0
  6  7  2  0
  7  8  1  0
  8  9  2  0
  9 10  1  0
 10 11  2  0
 11 12  1  0
 12 13  2  0
 13 14  1  0
  8 15  1  0
 15 16  1  0
 16 17  1  0
 17 18  1  0
 18 19  1  0
 19 20  1  0
 20 21  1  0
 21 22  1  0
 22 23  1  0
 22 24  1  0
 21 25  1  0
 25 26  1  0
 17 27  1  0
 13  4  1  0
 27 15  1  0
 12  7  1  0
 26 18  1  0
M  END
>  <AAScore>  (1) 
-2.6465027454700363

>  <RootName>  (1) 
./4ZLY/04_DeltaGEst/trajectory_02/rank_01/lead_0270

$$$$
