confid_6
     RDKit          3D

 29 32  0  0  0  0  0  0  0  0999 V2000
   24.4800   26.1000   36.1300 N   0  0  0  0  0  0  0  0  0  0  0  0
   25.2500   26.2500   34.9900 C   0  0  0  0  0  0  0  0  0  0  0  0
   24.7400   25.7600   33.9900 O   0  0  0  0  0  0  0  0  0  0  0  0
   26.5900   26.8900   34.9600 C   0  0  0  0  0  0  0  0  0  0  0  0
   27.0600   27.2400   36.1600 N   0  0  0  0  0  0  0  0  0  0  0  0
   28.3000   27.7100   36.2400 N   0  0  0  0  0  0  0  0  0  0  0  0
   29.0500   27.9600   35.1500 C   0  0  0  0  0  0  0  0  0  0  0  0
   30.3400   28.4900   35.2600 C   0  0  0  0  0  0  0  0  0  0  0  0
   31.1100   28.8200   34.1400 C   0  0  0  0  0  0  0  0  0  0  0  0
   30.5200   28.6700   32.8800 C   0  0  0  0  0  0  0  0  0  0  0  0
   29.2900   28.0200   32.7700 C   0  0  0  0  0  0  0  0  0  0  0  0
   28.5200   27.7100   33.8900 C   0  0  0  0  0  0  0  0  0  0  0  0
   27.2700   27.0800   33.7600 C   0  0  0  0  0  0  0  0  0  0  0  0
   26.7500   26.8800   32.4900 N   0  0  0  0  0  0  0  0  0  0  0  0
   23.4689   25.0962   36.3352 C   0  0  0  0  0  0  0  0  0  0  0  0
   22.6698   25.1691   37.4325 N   0  0  0  0  0  0  0  0  0  0  0  0
   21.7145   24.2346   37.6712 C   0  0  0  0  0  0  0  0  0  0  0  0
   21.5345   23.1732   36.7791 C   0  0  0  0  0  0  0  0  0  0  0  0
   20.5247   22.0891   37.0683 C   0  0  0  0  0  0  0  0  0  0  0  0
   20.1306   21.3479   35.8513 N   0  0  0  0  0  0  0  0  0  0  0  0
   21.3328   20.8564   35.1405 C   0  0  0  0  0  0  0  0  0  0  0  0
   22.2421   21.9956   34.6487 C   0  0  0  0  0  0  0  0  0  0  0  0
   22.3899   23.0896   35.6686 C   0  0  0  0  0  0  0  0  0  0  0  0
   23.3245   24.0559   35.4691 N   0  0  0  0  0  0  0  0  0  0  0  0
   19.1996   22.1370   35.0072 C   0  0  0  0  0  0  0  0  0  0  0  0
   18.4830   21.2718   33.9622 C   0  0  0  0  0  0  0  0  0  0  0  0
   17.3473   21.9289   33.5239 F   0  0  0  0  0  0  0  0  0  0  0  0
   18.1103   20.0593   34.5150 F   0  0  0  0  0  0  0  0  0  0  0  0
   19.3026   21.0488   32.8709 F   0  0  0  0  0  0  0  0  0  0  0  0
  1  2  1  0
  2  3  2  0
  2  4  1  0
  4  5  2  0
  5  6  1  0
  6  7  2  0
  7  8  1  0
  8  9  2  0
  9 10  1  0
 10 11  2  0
 11 12  1  0
 12 13  2  0
 13 14  1  0
  1 15  1  0
 15 16  2  0
 16 17  1  0
 17 18  2  0
 18 19  1  0
 19 20  1  0
 20 21  1  0
 21 22  1  0
 22 23  1  0
 23 24  2  0
 20 25  1  0
 25 26  1  0
 26 27  1  0
 26 28  1  0
 26 29  1  0
 13  4  1  0
 24 15  1  0
 12  7  1  0
 23 18  1  0
M  END
>  <AAScore>  (1) 
259.9402276297831

>  <RootName>  (1) 
./4ZLY/04_DeltaGEst/trajectory_00/rank_00/lead_0026

$$$$
