confid_0
     RDKit          3D

 31 35  0  0  0  0  0  0  0  0999 V2000
   24.6900   26.1200   35.5300 N   0  0  0  0  0  0  0  0  0  0  0  0
   25.6600   25.6700   34.6600 C   0  0  0  0  0  0  0  0  0  0  0  0
   25.2400   25.0100   33.7200 O   0  0  0  0  0  0  0  0  0  0  0  0
   27.0300   26.2200   34.8800 C   0  0  0  0  0  0  0  0  0  0  0  0
   27.3500   26.7300   36.0700 N   0  0  0  0  0  0  0  0  0  0  0  0
   28.5700   27.1800   36.3300 N   0  0  0  0  0  0  0  0  0  0  0  0
   29.5300   27.1100   35.3900 C   0  0  0  0  0  0  0  0  0  0  0  0
   30.8300   27.5700   35.6500 C   0  0  0  0  0  0  0  0  0  0  0  0
   31.8500   27.5400   34.6900 C   0  0  0  0  0  0  0  0  0  0  0  0
   31.5100   27.1200   33.4000 C   0  0  0  0  0  0  0  0  0  0  0  0
   30.2200   26.6300   33.1100 C   0  0  0  0  0  0  0  0  0  0  0  0
   29.2400   26.6600   34.1000 C   0  0  0  0  0  0  0  0  0  0  0  0
   27.9300   26.2600   33.8100 C   0  0  0  0  0  0  0  0  0  0  0  0
   27.5200   25.7100   32.6100 N   0  0  0  0  0  0  0  0  0  0  0  0
   23.3247   25.6539   35.6028 C   0  0  0  0  0  0  0  0  0  0  0  0
   22.8037   25.0034   34.5999 N   0  0  0  0  0  0  0  0  0  0  0  0
   21.4817   24.4752   34.4434 C   0  0  0  0  0  0  0  0  0  0  0  0
   20.4048   25.2247   34.6380 C   0  0  0  0  0  0  0  0  0  0  0  0
   18.9547   25.2221   34.2558 C   0  0  0  0  0  0  0  0  0  0  0  0
   18.6938   26.4957   34.7502 O   0  0  0  0  0  0  0  0  0  0  0  0
   20.0136   26.5636   35.1895 C   0  0  1  0  0  0  0  0  0  0  0  0
   20.0491   26.6165   36.7198 C   0  0  0  0  0  0  0  0  0  0  0  0
   21.3593   26.2030   37.3056 C   0  0  0  0  0  0  0  0  0  0  0  0
   22.6276   25.8253   36.8922 C   0  0  0  0  0  0  0  0  0  0  0  0
   23.1088   25.6920   38.2735 N   0  0  0  0  0  0  0  0  0  0  0  0
   24.3217   25.2669   38.9596 C   0  0  0  0  0  0  0  0  0  0  0  0
   24.5771   23.7780   38.7119 C   0  0  0  0  0  0  0  0  0  0  0  0
   25.0833   23.5682   37.3372 N   0  0  0  0  0  0  0  0  0  0  0  0
   26.5546   23.5130   37.3218 C   0  0  0  0  0  0  0  0  0  0  0  0
   24.5327   22.3387   36.7484 C   0  0  0  0  0  0  0  0  0  0  0  0
   21.8222   26.0799   38.6481 C   0  0  0  0  0  0  0  0  0  0  0  0
  1  2  1  0
  2  3  2  0
  2  4  1  0
  4  5  2  0
  5  6  1  0
  6  7  2  0
  7  8  1  0
  8  9  2  0
  9 10  1  0
 10 11  2  0
 11 12  1  0
 12 13  2  0
 13 14  1  0
  1 15  1  0
 15 16  2  0
 16 17  1  0
 17 18  2  0
 18 19  1  0
 19 20  1  0
 20 21  1  0
 21 22  1  1
 22 23  1  0
 23 24  2  0
 24 25  1  0
 25 26  1  0
 26 27  1  0
 27 28  1  0
 28 29  1  0
 28 30  1  0
 25 31  1  0
 13  4  1  0
 24 15  1  0
 12  7  1  0
 21 18  1  0
 31 23  1  0
M  END
>  <AAScore>  (1) 
2446.49563553686

>  <RootName>  (1) 
./4ZLY/04_DeltaGEst/trajectory_02/rank_00/lead_0402

$$$$
