confid_17
     RDKit          3D

 27 30  0  0  0  0  0  0  0  0999 V2000
   25.3300   26.2600   34.7600 N   0  0  0  0  0  0  0  0  0  0  0  0
   26.1200   25.9200   33.6900 C   0  0  0  0  0  0  0  0  0  0  0  0
   25.6300   25.1100   32.9400 O   0  0  0  0  0  0  0  0  0  0  0  0
   27.5200   26.3800   33.4600 C   0  0  0  0  0  0  0  0  0  0  0  0
   28.1600   26.6300   34.6100 N   0  0  0  0  0  0  0  0  0  0  0  0
   29.4800   26.8500   34.5700 N   0  0  0  0  0  0  0  0  0  0  0  0
   30.1900   26.7800   33.4400 C   0  0  0  0  0  0  0  0  0  0  0  0
   31.5600   27.0500   33.5000 C   0  0  0  0  0  0  0  0  0  0  0  0
   32.2700   27.2400   32.3100 C   0  0  0  0  0  0  0  0  0  0  0  0
   31.6100   27.2500   31.0800 C   0  0  0  0  0  0  0  0  0  0  0  0
   30.2700   26.8700   31.0600 C   0  0  0  0  0  0  0  0  0  0  0  0
   29.5100   26.6900   32.2300 C   0  0  0  0  0  0  0  0  0  0  0  0
   28.1400   26.4100   32.2000 C   0  0  0  0  0  0  0  0  0  0  0  0
   27.4300   26.1300   31.0500 N   0  0  0  0  0  0  0  0  0  0  0  0
   26.4812   27.1161   30.5203 C   0  0  0  0  0  0  0  0  0  0  0  0
   26.5762   27.2242   28.9820 C   0  0  0  0  0  0  0  0  0  0  0  0
   27.1849   26.0359   28.3336 N   0  0  0  0  0  0  0  0  0  0  0  0
   26.7628   25.9589   26.9196 C   0  0  0  0  0  0  0  0  0  0  0  0
   27.6433   25.0201   26.1440 C   0  0  0  0  0  0  0  0  0  0  0  0
   28.9941   25.1730   25.8869 C   0  0  0  0  0  0  0  0  0  0  0  0
   29.4320   24.1219   25.1644 N   0  0  0  0  0  0  0  0  0  0  0  0
   28.4020   23.3123   24.9614 N   0  0  0  0  0  0  0  0  0  0  0  0
   28.4977   22.0760   24.1928 C   0  0  0  0  0  0  0  0  0  0  0  0
   27.2966   23.8217   25.5471 C   0  0  0  0  0  0  0  0  0  0  0  0
   25.9333   23.1979   25.5349 C   0  0  0  0  0  0  0  0  0  0  0  0
   26.8508   24.7974   29.0630 C   0  0  0  0  0  0  0  0  0  0  0  0
   27.5710   24.8165   30.4105 C   0  0  0  0  0  0  0  0  0  0  0  0
  1  2  1  0
  2  3  2  0
  2  4  1  0
  4  5  2  0
  5  6  1  0
  6  7  2  0
  7  8  1  0
  8  9  2  0
  9 10  1  0
 10 11  2  0
 11 12  1  0
 12 13  2  0
 13 14  1  0
 14 15  1  0
 15 16  1  0
 16 17  1  0
 17 18  1  0
 18 19  1  0
 19 20  1  0
 20 21  2  0
 21 22  1  0
 22 23  1  0
 22 24  1  0
 24 25  1  0
 17 26  1  0
 26 27  1  0
 13  4  1  0
 27 14  1  0
 12  7  1  0
 24 19  2  0
M  END
>  <AAScore>  (1) 
-1.8971316068614272

>  <RootName>  (1) 
./4ZLY/04_DeltaGEst/trajectory_03/rank_01/lead_0331

$$$$
