confid_3
     RDKit          3D

 28 31  0  0  0  0  0  0  0  0999 V2000
   24.2000   26.2400   35.6900 N   0  0  0  0  0  0  0  0  0  0  0  0
   24.8500   26.2800   34.4800 C   0  0  0  0  0  0  0  0  0  0  0  0
   24.3100   25.7400   33.5400 O   0  0  0  0  0  0  0  0  0  0  0  0
   26.1800   26.9700   34.4700 C   0  0  0  0  0  0  0  0  0  0  0  0
   26.6500   27.6000   35.5500 N   0  0  0  0  0  0  0  0  0  0  0  0
   27.7900   28.2700   35.6200 N   0  0  0  0  0  0  0  0  0  0  0  0
   28.5400   28.3000   34.5100 C   0  0  0  0  0  0  0  0  0  0  0  0
   29.7700   28.9400   34.5600 C   0  0  0  0  0  0  0  0  0  0  0  0
   30.7000   28.8900   33.5000 C   0  0  0  0  0  0  0  0  0  0  0  0
   30.3700   28.1400   32.3700 C   0  0  0  0  0  0  0  0  0  0  0  0
   29.1200   27.5200   32.2800 C   0  0  0  0  0  0  0  0  0  0  0  0
   28.2100   27.6100   33.3300 C   0  0  0  0  0  0  0  0  0  0  0  0
   26.9700   26.9700   33.3100 C   0  0  0  0  0  0  0  0  0  0  0  0
   26.5300   26.2400   32.2200 N   0  0  0  0  0  0  0  0  0  0  0  0
   30.1251   29.6862   35.7363 N   0  0  0  0  0  0  0  0  0  0  0  0
   31.3105   29.3021   36.5050 C   0  0  0  0  0  0  0  0  0  0  0  0
   31.0244   29.4623   37.9954 C   0  0  0  0  0  0  0  0  0  0  0  0
   30.4502   30.8215   38.2966 C   0  0  0  0  0  0  0  0  0  0  0  0
   30.5717   31.3598   39.5834 C   0  0  0  0  0  0  0  0  0  0  0  0
   30.0049   32.6020   39.8883 C   0  0  0  0  0  0  0  0  0  0  0  0
   30.1659   33.1518   41.2054 N   0  0  0  0  0  0  0  0  0  0  0  0
   31.0063   34.3299   41.4182 C   0  0  0  0  0  0  0  0  0  0  0  0
   29.4494   32.5485   42.3284 C   0  0  0  0  0  0  0  0  0  0  0  0
   29.2839   33.2861   38.8904 C   0  0  0  0  0  0  0  0  0  0  0  0
   29.1704   32.7381   37.6508 N   0  0  0  0  0  0  0  0  0  0  0  0
   29.7167   31.5353   37.3279 C   0  0  0  0  0  0  0  0  0  0  0  0
   29.5441   31.0213   35.9217 C   0  0  0  0  0  0  0  0  0  0  0  0
   28.6467   34.6169   39.1546 C   0  0  0  0  0  0  0  0  0  0  0  0
  1  2  1  0
  2  3  2  0
  2  4  1  0
  4  5  2  0
  5  6  1  0
  6  7  2  0
  7  8  1  0
  8  9  2  0
  9 10  1  0
 10 11  2  0
 11 12  1  0
 12 13  2  0
 13 14  1  0
  8 15  1  0
 15 16  1  0
 16 17  1  0
 17 18  1  0
 18 19  2  0
 19 20  1  0
 20 21  1  0
 21 22  1  0
 21 23  1  0
 20 24  2  0
 24 25  1  0
 25 26  2  0
 26 27  1  0
 24 28  1  0
 13  4  1  0
 27 15  1  0
 12  7  1  0
 26 18  1  0
M  END
>  <AAScore>  (1) 
-4.73881558412453

>  <RootName>  (1) 
./4ZLY/04_DeltaGEst/trajectory_04/rank_01/lead_0125

$$$$
