confid_4
     RDKit          3D

 27 30  0  0  0  0  0  0  0  0999 V2000
   24.5500   26.3900   36.2500 N   0  0  0  0  0  0  0  0  0  0  0  0
   25.6000   26.1300   35.4000 C   0  0  0  0  0  0  0  0  0  0  0  0
   25.4300   25.4300   34.4200 O   0  0  0  0  0  0  0  0  0  0  0  0
   26.9800   26.6300   35.7100 C   0  0  0  0  0  0  0  0  0  0  0  0
   27.3200   26.8200   36.9800 N   0  0  0  0  0  0  0  0  0  0  0  0
   28.4700   27.4000   37.3100 N   0  0  0  0  0  0  0  0  0  0  0  0
   29.4000   27.6300   36.3700 C   0  0  0  0  0  0  0  0  0  0  0  0
   30.6600   28.0500   36.8000 C   0  0  0  0  0  0  0  0  0  0  0  0
   31.5700   28.3600   35.7800 C   0  0  0  0  0  0  0  0  0  0  0  0
   31.3700   28.1000   34.4300 C   0  0  0  0  0  0  0  0  0  0  0  0
   30.1200   27.5900   34.0500 C   0  0  0  0  0  0  0  0  0  0  0  0
   29.1500   27.3400   35.0300 C   0  0  0  0  0  0  0  0  0  0  0  0
   27.8800   26.8900   34.6600 C   0  0  0  0  0  0  0  0  0  0  0  0
   27.4800   26.6100   33.3700 N   0  0  0  0  0  0  0  0  0  0  0  0
   31.0013   28.3016   38.2161 C   0  0  0  0  0  0  0  0  0  0  0  0
   32.0469   27.6768   38.8817 C   0  0  0  0  0  0  0  0  0  0  0  0
   32.0160   28.1729   40.1672 C   0  0  0  0  0  0  0  0  0  0  0  0
   32.9772   27.9372   41.2925 C   0  0  0  0  0  0  0  0  0  0  0  0
   32.2971   28.2444   42.6442 C   0  0  0  0  0  0  0  0  0  0  0  0
   31.5622   29.5270   42.6141 N   0  0  0  0  0  0  0  0  0  0  0  0
   30.7497   29.8413   41.4628 C   0  0  0  0  0  0  0  0  0  0  0  0
   29.8679   30.7402   41.5154 O   0  0  0  0  0  0  0  0  0  0  0  0
   31.0012   29.0897   40.2269 C   0  0  0  0  0  0  0  0  0  0  0  0
   30.3714   29.1841   39.0352 N   0  0  0  0  0  0  0  0  0  0  0  0
   29.2947   30.1137   38.6889 C   0  0  0  0  0  0  0  0  0  0  0  0
   31.5200   30.3727   43.8122 C   0  0  0  0  0  0  0  0  0  0  0  0
   30.3876   29.9348   44.7341 C   0  0  0  0  0  0  0  0  0  0  0  0
  1  2  1  0
  2  3  2  0
  2  4  1  0
  4  5  2  0
  5  6  1  0
  6  7  2  0
  7  8  1  0
  8  9  2  0
  9 10  1  0
 10 11  2  0
 11 12  1  0
 12 13  2  0
 13 14  1  0
  8 15  1  0
 15 16  2  0
 16 17  1  0
 17 18  1  0
 18 19  1  0
 19 20  1  0
 20 21  1  0
 21 22  2  0
 21 23  1  0
 23 24  1  0
 24 25  1  0
 20 26  1  0
 26 27  1  0
 13  4  1  0
 24 15  1  0
 12  7  1  0
 23 17  2  0
M  END
>  <AAScore>  (1) 
187.7202191852373

>  <RootName>  (1) 
./4ZLY/04_DeltaGEst/trajectory_01/rank_01/lead_0112

$$$$
