confid_16
     RDKit          3D

 30 33  0  0  0  0  0  0  0  0999 V2000
   24.5500   26.3900   36.2500 N   0  0  0  0  0  0  0  0  0  0  0  0
   25.6000   26.1300   35.4000 C   0  0  0  0  0  0  0  0  0  0  0  0
   25.4300   25.4300   34.4200 O   0  0  0  0  0  0  0  0  0  0  0  0
   26.9800   26.6300   35.7100 C   0  0  0  0  0  0  0  0  0  0  0  0
   27.3200   26.8200   36.9800 N   0  0  0  0  0  0  0  0  0  0  0  0
   28.4700   27.4000   37.3100 N   0  0  0  0  0  0  0  0  0  0  0  0
   29.4000   27.6300   36.3700 C   0  0  0  0  0  0  0  0  0  0  0  0
   30.6600   28.0500   36.8000 C   0  0  0  0  0  0  0  0  0  0  0  0
   31.5700   28.3600   35.7800 C   0  0  0  0  0  0  0  0  0  0  0  0
   31.3700   28.1000   34.4300 C   0  0  0  0  0  0  0  0  0  0  0  0
   30.1200   27.5900   34.0500 C   0  0  0  0  0  0  0  0  0  0  0  0
   29.1500   27.3400   35.0300 C   0  0  0  0  0  0  0  0  0  0  0  0
   27.8800   26.8900   34.6600 C   0  0  0  0  0  0  0  0  0  0  0  0
   27.4800   26.6100   33.3700 N   0  0  0  0  0  0  0  0  0  0  0  0
   23.2090   25.8117   36.0846 C   0  0  0  0  0  0  0  0  0  0  0  0
   22.1272   26.8665   36.4395 C   0  0  0  0  0  0  0  0  0  0  0  0
   20.9704   26.2790   37.2525 C   0  0  0  0  0  0  0  0  0  0  0  0
   21.4909   25.6278   38.4640 N   0  0  0  0  0  0  0  0  0  0  0  0
   20.7304   25.6961   39.6907 C   0  0  0  0  0  0  0  0  0  0  0  0
   19.5069   26.0054   39.6445 O   0  0  0  0  0  0  0  0  0  0  0  0
   21.3593   25.4429   41.0472 C   0  0  0  0  0  0  0  0  0  0  0  0
   20.5961   24.3205   41.7843 C   0  0  0  0  0  0  0  0  0  0  0  0
   21.3946   23.7790   42.9767 C   0  0  0  0  0  0  0  0  0  0  0  0
   22.0258   25.1160   43.9776 S   0  0  0  0  0  6  0  0  0  0  0  0
   21.6514   24.9032   45.4175 O   0  0  0  0  0  0  0  0  0  0  0  0
   23.5216   25.1875   43.8528 O   0  0  0  0  0  0  0  0  0  0  0  0
   21.2991   26.6301   43.3827 C   0  0  0  0  0  0  0  0  0  0  0  0
   21.4399   26.7717   41.8559 C   0  0  0  0  0  0  0  0  0  0  0  0
   22.7111   24.8069   38.3777 C   0  0  0  0  0  0  0  0  0  0  0  0
   23.0948   24.5197   36.9206 C   0  0  0  0  0  0  0  0  0  0  0  0
  1  2  1  0
  2  3  2  0
  2  4  1  0
  4  5  2  0
  5  6  1  0
  6  7  2  0
  7  8  1  0
  8  9  2  0
  9 10  1  0
 10 11  2  0
 11 12  1  0
 12 13  2  0
 13 14  1  0
  1 15  1  0
 15 16  1  0
 16 17  1  0
 17 18  1  0
 18 19  1  0
 19 20  2  0
 19 21  1  0
 21 22  1  0
 22 23  1  0
 23 24  1  0
 24 25  2  0
 24 26  2  0
 24 27  1  0
 27 28  1  0
 18 29  1  0
 29 30  1  0
 13  4  1  0
 30 15  1  0
 12  7  1  0
 28 21  1  0
M  END
>  <AAScore>  (1) 
249.5522910964271

>  <RootName>  (1) 
./4ZLY/04_DeltaGEst/trajectory_01/rank_00/lead_0272

$$$$
