confid_2
     RDKit          3D

 28 31  0  0  0  0  0  0  0  0999 V2000
   24.5500   26.3900   36.2500 N   0  0  0  0  0  0  0  0  0  0  0  0
   25.6000   26.1300   35.4000 C   0  0  0  0  0  0  0  0  0  0  0  0
   25.4300   25.4300   34.4200 O   0  0  0  0  0  0  0  0  0  0  0  0
   26.9800   26.6300   35.7100 C   0  0  0  0  0  0  0  0  0  0  0  0
   27.3200   26.8200   36.9800 N   0  0  0  0  0  0  0  0  0  0  0  0
   28.4700   27.4000   37.3100 N   0  0  0  0  0  0  0  0  0  0  0  0
   29.4000   27.6300   36.3700 C   0  0  0  0  0  0  0  0  0  0  0  0
   30.6600   28.0500   36.8000 C   0  0  0  0  0  0  0  0  0  0  0  0
   31.5700   28.3600   35.7800 C   0  0  0  0  0  0  0  0  0  0  0  0
   31.3700   28.1000   34.4300 C   0  0  0  0  0  0  0  0  0  0  0  0
   30.1200   27.5900   34.0500 C   0  0  0  0  0  0  0  0  0  0  0  0
   29.1500   27.3400   35.0300 C   0  0  0  0  0  0  0  0  0  0  0  0
   27.8800   26.8900   34.6600 C   0  0  0  0  0  0  0  0  0  0  0  0
   27.4800   26.6100   33.3700 N   0  0  0  0  0  0  0  0  0  0  0  0
   31.0021   28.2755   38.2263 C   0  0  0  0  0  0  0  0  0  0  0  0
   30.8679   27.2274   39.1525 C   0  0  0  0  0  0  0  0  0  0  0  0
   31.2033   27.4203   40.5002 C   0  0  0  0  0  0  0  0  0  0  0  0
   31.0247   26.3007   41.4962 C   0  0  0  0  0  0  0  0  0  0  0  0
   31.8946   26.5119   42.7501 C   0  0  2  0  0  0  0  0  0  0  0  0
   33.2285   26.3399   42.4179 F   0  0  0  0  0  0  0  0  0  0  0  0
   31.5409   25.5249   43.7817 C   0  0  0  0  0  0  0  0  0  0  0  0
   31.2626   24.7483   44.5934 N   0  0  0  0  0  0  0  0  0  0  0  0
   31.6888   27.9352   43.2901 C   0  0  0  0  0  0  0  0  0  0  0  0
   31.9784   28.8967   42.2754 O   0  0  0  0  0  0  0  0  0  0  0  0
   31.6500   28.6833   40.9314 C   0  0  0  0  0  0  0  0  0  0  0  0
   31.7929   29.7250   40.0116 C   0  0  0  0  0  0  0  0  0  0  0  0
   31.4735   29.5267   38.6652 C   0  0  0  0  0  0  0  0  0  0  0  0
   31.5946   30.5642   37.7984 F   0  0  0  0  0  0  0  0  0  0  0  0
  1  2  1  0
  2  3  2  0
  2  4  1  0
  4  5  2  0
  5  6  1  0
  6  7  2  0
  7  8  1  0
  8  9  2  0
  9 10  1  0
 10 11  2  0
 11 12  1  0
 12 13  2  0
 13 14  1  0
  8 15  1  0
 15 16  2  0
 16 17  1  0
 17 18  1  0
 18 19  1  0
 19 20  1  6
 19 21  1  0
 21 22  3  0
 19 23  1  0
 23 24  1  0
 24 25  1  0
 25 26  1  0
 26 27  2  0
 27 28  1  0
 13  4  1  0
 27 15  1  0
 12  7  1  0
 25 17  2  0
M  END
>  <AAScore>  (1) 
17.077960371469427

>  <RootName>  (1) 
./4ZLY/04_DeltaGEst/trajectory_01/rank_01/lead_0168

$$$$
