confid_6
     RDKit          3D

 29 31  0  0  0  0  0  0  0  0999 V2000
   24.2000   26.2400   35.6900 N   0  0  0  0  0  0  0  0  0  0  0  0
   24.8500   26.2800   34.4800 C   0  0  0  0  0  0  0  0  0  0  0  0
   24.3100   25.7400   33.5400 O   0  0  0  0  0  0  0  0  0  0  0  0
   26.1800   26.9700   34.4700 C   0  0  0  0  0  0  0  0  0  0  0  0
   26.6500   27.6000   35.5500 N   0  0  0  0  0  0  0  0  0  0  0  0
   27.7900   28.2700   35.6200 N   0  0  0  0  0  0  0  0  0  0  0  0
   28.5400   28.3000   34.5100 C   0  0  0  0  0  0  0  0  0  0  0  0
   29.7700   28.9400   34.5600 C   0  0  0  0  0  0  0  0  0  0  0  0
   30.7000   28.8900   33.5000 C   0  0  0  0  0  0  0  0  0  0  0  0
   30.3700   28.1400   32.3700 C   0  0  0  0  0  0  0  0  0  0  0  0
   29.1200   27.5200   32.2800 C   0  0  0  0  0  0  0  0  0  0  0  0
   28.2100   27.6100   33.3300 C   0  0  0  0  0  0  0  0  0  0  0  0
   26.9700   26.9700   33.3100 C   0  0  0  0  0  0  0  0  0  0  0  0
   26.5300   26.2400   32.2200 N   0  0  0  0  0  0  0  0  0  0  0  0
   30.1320   29.6822   35.7423 N   0  0  0  0  0  0  0  0  0  0  0  0
   30.8852   28.9431   36.7711 C   0  0  0  0  0  0  0  0  0  0  0  0
   30.5299   29.3620   38.2081 C   0  0  0  0  0  0  0  0  0  0  0  0
   29.0232   29.2663   38.4956 C   0  0  0  0  0  0  0  0  0  0  0  0
   28.7371   29.3875   39.9427 N   0  0  0  0  0  0  0  0  0  0  0  0
   28.9457   30.7685   40.4201 C   0  0  0  0  0  0  0  0  0  0  0  0
   27.3452   28.9850   40.2065 C   0  0  0  0  0  0  0  0  0  0  0  0
   30.2923   31.1456   35.6351 C   0  0  0  0  0  0  0  0  0  0  0  0
   29.1315   31.8117   34.8754 C   0  0  0  0  0  0  0  0  0  0  0  0
   27.8333   31.5049   35.5200 N   0  0  0  0  0  0  0  0  0  0  0  0
   26.7519   31.4375   34.5110 C   0  0  0  0  0  0  0  0  0  0  0  0
   25.3693   31.1730   35.1518 C   0  0  0  0  0  0  0  0  0  0  0  0
   25.4602   30.9721   36.6684 C   0  0  0  0  0  0  0  0  0  0  0  0
   26.2226   32.1295   37.3257 C   0  0  0  0  0  0  0  0  0  0  0  0
   27.5010   32.5124   36.5507 C   0  0  0  0  0  0  0  0  0  0  0  0
  1  2  1  0
  2  3  2  0
  2  4  1  0
  4  5  2  0
  5  6  1  0
  6  7  2  0
  7  8  1  0
  8  9  2  0
  9 10  1  0
 10 11  2  0
 11 12  1  0
 12 13  2  0
 13 14  1  0
  8 15  1  0
 15 16  1  0
 16 17  1  0
 17 18  1  0
 18 19  1  0
 19 20  1  0
 19 21  1  0
 15 22  1  0
 22 23  1  0
 23 24  1  0
 24 25  1  0
 25 26  1  0
 26 27  1  0
 27 28  1  0
 28 29  1  0
 13  4  1  0
 29 24  1  0
 12  7  1  0
M  END
>  <AAScore>  (1) 
130.26849296386

>  <RootName>  (1) 
./4ZLY/04_DeltaGEst/trajectory_04/rank_01/lead_0198

$$$$
