confid_7
     RDKit          3D

 27 29  0  0  0  0  0  0  0  0999 V2000
   24.5700   26.8800   35.5900 N   0  0  0  0  0  0  0  0  0  0  0  0
   25.5000   26.4000   34.6900 C   0  0  0  0  0  0  0  0  0  0  0  0
   25.1700   25.5200   33.9100 O   0  0  0  0  0  0  0  0  0  0  0  0
   26.8400   27.0200   34.7400 C   0  0  0  0  0  0  0  0  0  0  0  0
   27.3800   27.2800   35.9400 N   0  0  0  0  0  0  0  0  0  0  0  0
   28.6200   27.7400   36.0300 N   0  0  0  0  0  0  0  0  0  0  0  0
   29.3800   28.0000   34.9600 C   0  0  0  0  0  0  0  0  0  0  0  0
   30.6700   28.5000   35.1300 C   0  0  0  0  0  0  0  0  0  0  0  0
   31.5400   28.6100   34.0300 C   0  0  0  0  0  0  0  0  0  0  0  0
   31.0900   28.2200   32.7700 C   0  0  0  0  0  0  0  0  0  0  0  0
   29.8000   27.7000   32.6000 C   0  0  0  0  0  0  0  0  0  0  0  0
   28.9600   27.5500   33.7100 C   0  0  0  0  0  0  0  0  0  0  0  0
   27.6600   27.0300   33.5900 C   0  0  0  0  0  0  0  0  0  0  0  0
   27.1600   26.7400   32.3400 N   0  0  0  0  0  0  0  0  0  0  0  0
   33.1679   29.2553   34.2238 S   0  0  0  0  0  6  0  0  0  0  0  0
   34.1606   28.1799   33.8838 O   0  0  0  0  0  0  0  0  0  0  0  0
   33.3901   29.6813   35.6485 O   0  0  0  0  0  0  0  0  0  0  0  0
   33.4318   30.6631   33.1467 C   0  0  0  0  0  0  0  0  0  0  0  0
   32.2890   31.6870   33.2072 C   0  0  0  0  0  0  0  0  0  0  0  0
   32.1300   32.2958   34.5777 C   0  0  0  0  0  0  0  0  0  0  0  0
   33.1116   33.1604   35.0864 C   0  0  0  0  0  0  0  0  0  0  0  0
   32.9775   33.7064   36.3659 C   0  0  0  0  0  0  0  0  0  0  0  0
   31.8628   33.3906   37.1585 C   0  0  0  0  0  0  0  0  0  0  0  0
   31.7069   33.9950   38.5239 C   0  0  0  0  0  0  0  0  0  0  0  0
   30.8687   32.5429   36.6424 C   0  0  0  0  0  0  0  0  0  0  0  0
   31.0034   31.9996   35.3614 C   0  0  0  0  0  0  0  0  0  0  0  0
   29.7686   32.2429   37.3787 F   0  0  0  0  0  0  0  0  0  0  0  0
  1  2  1  0
  2  3  2  0
  2  4  1  0
  4  5  2  0
  5  6  1  0
  6  7  2  0
  7  8  1  0
  8  9  2  0
  9 10  1  0
 10 11  2  0
 11 12  1  0
 12 13  2  0
 13 14  1  0
  9 15  1  0
 15 16  2  0
 15 17  2  0
 15 18  1  0
 18 19  1  0
 19 20  1  0
 20 21  2  0
 21 22  1  0
 22 23  2  0
 23 24  1  0
 23 25  1  0
 25 26  2  0
 25 27  1  0
 13  4  1  0
 26 20  1  0
 12  7  1  0
M  END
>  <AAScore>  (1) 
-6.336113132836824

>  <RootName>  (1) 
./4ZLY/04_DeltaGEst/trajectory_05/rank_01/lead_0324

$$$$
