confid_0
     RDKit          3D

 30 33  0  0  0  0  0  0  0  0999 V2000
   24.5500   26.3900   36.2500 N   0  0  0  0  0  0  0  0  0  0  0  0
   25.6000   26.1300   35.4000 C   0  0  0  0  0  0  0  0  0  0  0  0
   25.4300   25.4300   34.4200 O   0  0  0  0  0  0  0  0  0  0  0  0
   26.9800   26.6300   35.7100 C   0  0  0  0  0  0  0  0  0  0  0  0
   27.3200   26.8200   36.9800 N   0  0  0  0  0  0  0  0  0  0  0  0
   28.4700   27.4000   37.3100 N   0  0  0  0  0  0  0  0  0  0  0  0
   29.4000   27.6300   36.3700 C   0  0  0  0  0  0  0  0  0  0  0  0
   30.6600   28.0500   36.8000 C   0  0  0  0  0  0  0  0  0  0  0  0
   31.5700   28.3600   35.7800 C   0  0  0  0  0  0  0  0  0  0  0  0
   31.3700   28.1000   34.4300 C   0  0  0  0  0  0  0  0  0  0  0  0
   30.1200   27.5900   34.0500 C   0  0  0  0  0  0  0  0  0  0  0  0
   29.1500   27.3400   35.0300 C   0  0  0  0  0  0  0  0  0  0  0  0
   27.8800   26.8900   34.6600 C   0  0  0  0  0  0  0  0  0  0  0  0
   27.4800   26.6100   33.3700 N   0  0  0  0  0  0  0  0  0  0  0  0
   30.9927   28.2822   38.2257 C   0  0  0  0  0  0  0  0  0  0  0  0
   31.0724   27.1748   39.0838 C   0  0  0  0  0  0  0  0  0  0  0  0
   31.4153   27.3363   40.4329 C   0  0  0  0  0  0  0  0  0  0  0  0
   31.4490   26.1411   41.3538 C   0  0  0  0  0  0  0  0  0  0  0  0
   32.3537   26.3272   42.5059 N   0  0  0  0  0  0  0  0  0  0  0  0
   32.7450   25.1579   43.2606 C   0  0  0  0  0  0  0  0  0  0  0  0
   32.0929   24.0852   43.1293 O   0  0  0  0  0  0  0  0  0  0  0  0
   33.9034   25.1938   44.2254 C   0  0  0  0  0  0  0  0  0  0  0  0
   34.3884   23.8871   44.4789 O   0  0  0  0  0  0  0  0  0  0  0  0
   33.8810   23.4018   45.7029 C   0  0  0  0  0  0  0  0  0  0  0  0
   32.8886   27.6540   42.8665 C   0  0  0  0  0  0  0  0  0  0  0  0
   31.9761   28.7855   42.3908 C   0  0  0  0  0  0  0  0  0  0  0  0
   31.6631   28.6203   40.9352 C   0  0  0  0  0  0  0  0  0  0  0  0
   31.5603   29.7353   40.0923 C   0  0  0  0  0  0  0  0  0  0  0  0
   31.2184   29.5814   38.7390 C   0  0  0  0  0  0  0  0  0  0  0  0
   31.1143   30.8048   37.8661 C   0  0  0  0  0  0  0  0  0  0  0  0
  1  2  1  0
  2  3  2  0
  2  4  1  0
  4  5  2  0
  5  6  1  0
  6  7  2  0
  7  8  1  0
  8  9  2  0
  9 10  1  0
 10 11  2  0
 11 12  1  0
 12 13  2  0
 13 14  1  0
  8 15  1  0
 15 16  2  0
 16 17  1  0
 17 18  1  0
 18 19  1  0
 19 20  1  0
 20 21  2  0
 20 22  1  0
 22 23  1  0
 23 24  1  0
 19 25  1  0
 25 26  1  0
 26 27  1  0
 27 28  1  0
 28 29  2  0
 29 30  1  0
 13  4  1  0
 29 15  1  0
 12  7  1  0
 27 17  2  0
M  END
>  <AAScore>  (1) 
171.35119579787386

>  <RootName>  (1) 
./4ZLY/04_DeltaGEst/trajectory_01/rank_01/lead_0472

$$$$
