confid_4
     RDKit          3D

 27 30  0  0  0  0  0  0  0  0999 V2000
   24.5500   26.3900   36.2500 N   0  0  0  0  0  0  0  0  0  0  0  0
   25.6000   26.1300   35.4000 C   0  0  0  0  0  0  0  0  0  0  0  0
   25.4300   25.4300   34.4200 O   0  0  0  0  0  0  0  0  0  0  0  0
   26.9800   26.6300   35.7100 C   0  0  0  0  0  0  0  0  0  0  0  0
   27.3200   26.8200   36.9800 N   0  0  0  0  0  0  0  0  0  0  0  0
   28.4700   27.4000   37.3100 N   0  0  0  0  0  0  0  0  0  0  0  0
   29.4000   27.6300   36.3700 C   0  0  0  0  0  0  0  0  0  0  0  0
   30.6600   28.0500   36.8000 C   0  0  0  0  0  0  0  0  0  0  0  0
   31.5700   28.3600   35.7800 C   0  0  0  0  0  0  0  0  0  0  0  0
   31.3700   28.1000   34.4300 C   0  0  0  0  0  0  0  0  0  0  0  0
   30.1200   27.5900   34.0500 C   0  0  0  0  0  0  0  0  0  0  0  0
   29.1500   27.3400   35.0300 C   0  0  0  0  0  0  0  0  0  0  0  0
   27.8800   26.8900   34.6600 C   0  0  0  0  0  0  0  0  0  0  0  0
   27.4800   26.6100   33.3700 N   0  0  0  0  0  0  0  0  0  0  0  0
   23.1638   26.2849   35.8818 C   0  0  0  0  0  0  0  0  0  0  0  0
   22.2820   26.0554   36.8109 N   0  0  0  0  0  0  0  0  0  0  0  0
   20.8766   25.9461   36.5412 C   0  0  0  0  0  0  0  0  0  0  0  0
   20.3809   26.2978   35.3463 C   0  0  0  0  0  0  0  0  0  0  0  0
   18.9030   26.2574   35.0861 C   0  0  0  0  0  0  0  0  0  0  0  0
   18.6332   26.0649   33.6508 N   0  0  0  0  0  0  0  0  0  0  0  0
   18.4774   24.6926   33.1107 C   0  0  0  0  0  0  0  0  0  0  0  0
   19.3270   23.6197   33.8097 C   0  0  0  0  0  0  0  0  0  0  0  0
   19.3243   26.9263   32.8293 O   0  0  0  0  0  0  0  0  0  0  0  0
   20.7170   26.6717   32.9078 C   0  0  0  0  0  0  0  0  0  0  0  0
   21.2785   26.9552   34.3217 C   0  0  1  0  0  0  0  0  0  0  0  0
   21.2933   28.4795   34.5748 C   0  0  0  0  0  0  0  0  0  0  0  0
   22.7190   26.3862   34.4361 C   0  0  0  0  0  0  0  0  0  0  0  0
  1  2  1  0
  2  3  2  0
  2  4  1  0
  4  5  2  0
  5  6  1  0
  6  7  2  0
  7  8  1  0
  8  9  2  0
  9 10  1  0
 10 11  2  0
 11 12  1  0
 12 13  2  0
 13 14  1  0
  1 15  1  0
 15 16  2  0
 16 17  1  0
 17 18  2  0
 18 19  1  0
 19 20  1  0
 20 21  1  0
 21 22  1  0
 20 23  1  0
 23 24  1  0
 24 25  1  0
 25 26  1  1
 25 27  1  0
 13  4  1  0
 27 15  1  0
 12  7  1  0
 25 18  1  0
M  END
>  <AAScore>  (1) 
531.5164829259347

>  <RootName>  (1) 
./4ZLY/04_DeltaGEst/trajectory_01/rank_00/lead_0138

$$$$
