confid_18
     RDKit          3D

 28 31  0  0  0  0  0  0  0  0999 V2000
   25.3300   26.2600   34.7600 N   0  0  0  0  0  0  0  0  0  0  0  0
   26.1200   25.9200   33.6900 C   0  0  0  0  0  0  0  0  0  0  0  0
   25.6300   25.1100   32.9400 O   0  0  0  0  0  0  0  0  0  0  0  0
   27.5200   26.3800   33.4600 C   0  0  0  0  0  0  0  0  0  0  0  0
   28.1600   26.6300   34.6100 N   0  0  0  0  0  0  0  0  0  0  0  0
   29.4800   26.8500   34.5700 N   0  0  0  0  0  0  0  0  0  0  0  0
   30.1900   26.7800   33.4400 C   0  0  0  0  0  0  0  0  0  0  0  0
   31.5600   27.0500   33.5000 C   0  0  0  0  0  0  0  0  0  0  0  0
   32.2700   27.2400   32.3100 C   0  0  0  0  0  0  0  0  0  0  0  0
   31.6100   27.2500   31.0800 C   0  0  0  0  0  0  0  0  0  0  0  0
   30.2700   26.8700   31.0600 C   0  0  0  0  0  0  0  0  0  0  0  0
   29.5100   26.6900   32.2300 C   0  0  0  0  0  0  0  0  0  0  0  0
   28.1400   26.4100   32.2000 C   0  0  0  0  0  0  0  0  0  0  0  0
   27.4300   26.1300   31.0500 N   0  0  0  0  0  0  0  0  0  0  0  0
   27.5825   24.8176   30.4060 C   0  0  0  0  0  0  0  0  0  0  0  0
   26.6368   24.6761   29.2108 C   0  0  0  0  0  0  0  0  0  0  0  0
   26.6980   25.8892   28.3836 N   0  0  0  0  0  0  0  0  0  0  0  0
   27.0250   25.7969   26.9841 C   0  0  0  0  0  0  0  0  0  0  0  0
   27.8738   26.5882   26.4914 O   0  0  0  0  0  0  0  0  0  0  0  0
   26.3657   24.8142   26.1039 C   0  0  0  0  0  0  0  0  0  0  0  0
   26.7529   24.4766   24.8203 C   0  0  0  0  0  0  0  0  0  0  0  0
   25.9092   23.5992   24.3268 O   0  0  0  0  0  0  0  0  0  0  0  0
   24.9832   23.3554   25.2263 C   0  0  0  0  0  0  0  0  0  0  0  0
   23.8485   22.4086   25.0249 C   0  0  0  0  0  0  0  0  0  0  0  0
   25.2156   24.0961   26.3673 C   0  0  0  0  0  0  0  0  0  0  0  0
   26.5658   27.2172   29.0133 C   0  0  2  0  0  0  0  0  0  0  0  0
   26.4553   27.0993   30.5402 C   0  0  0  0  0  3  0  0  0  0  0  0
   25.3312   27.9378   28.4692 C   0  0  0  0  0  0  0  0  0  0  0  0
  1  2  1  0
  2  3  2  0
  2  4  1  0
  4  5  2  0
  5  6  1  0
  6  7  2  0
  7  8  1  0
  8  9  2  0
  9 10  1  0
 10 11  2  0
 11 12  1  0
 12 13  2  0
 13 14  1  0
 14 15  1  0
 15 16  1  0
 16 17  1  0
 17 18  1  0
 18 19  2  0
 18 20  1  0
 20 21  2  0
 21 22  1  0
 22 23  1  0
 23 24  1  0
 23 25  2  0
 17 26  1  0
 26 27  1  0
 26 28  1  6
 13  4  1  0
 27 14  1  0
 12  7  1  0
 25 20  1  0
M  RAD  1  27   2
M  END
>  <AAScore>  (1) 
13.319082432886043

>  <RootName>  (1) 
./4ZLY/04_DeltaGEst/trajectory_03/rank_01/lead_0265

$$$$
