confid_18
     RDKit          3D

 27 30  0  0  0  0  0  0  0  0999 V2000
   24.5700   26.8800   35.5900 N   0  0  0  0  0  0  0  0  0  0  0  0
   25.5000   26.4000   34.6900 C   0  0  0  0  0  0  0  0  0  0  0  0
   25.1700   25.5200   33.9100 O   0  0  0  0  0  0  0  0  0  0  0  0
   26.8400   27.0200   34.7400 C   0  0  0  0  0  0  0  0  0  0  0  0
   27.3800   27.2800   35.9400 N   0  0  0  0  0  0  0  0  0  0  0  0
   28.6200   27.7400   36.0300 N   0  0  0  0  0  0  0  0  0  0  0  0
   29.3800   28.0000   34.9600 C   0  0  0  0  0  0  0  0  0  0  0  0
   30.6700   28.5000   35.1300 C   0  0  0  0  0  0  0  0  0  0  0  0
   31.5400   28.6100   34.0300 C   0  0  0  0  0  0  0  0  0  0  0  0
   31.0900   28.2200   32.7700 C   0  0  0  0  0  0  0  0  0  0  0  0
   29.8000   27.7000   32.6000 C   0  0  0  0  0  0  0  0  0  0  0  0
   28.9600   27.5500   33.7100 C   0  0  0  0  0  0  0  0  0  0  0  0
   27.6600   27.0300   33.5900 C   0  0  0  0  0  0  0  0  0  0  0  0
   27.1600   26.7400   32.3400 N   0  0  0  0  0  0  0  0  0  0  0  0
   23.3062   26.2578   35.8796 C   0  0  0  0  0  0  0  0  0  0  0  0
   23.0082   25.0079   35.4035 N   0  0  0  0  0  0  0  0  0  0  0  0
   21.8209   24.4012   35.6857 C   0  0  0  0  0  0  0  0  0  0  0  0
   20.8814   25.0951   36.4428 C   0  0  0  0  0  0  0  0  0  0  0  0
   19.5672   24.6500   37.0143 C   0  0  2  0  0  0  0  0  0  0  0  0
   18.4037   24.6114   35.9880 C   0  0  0  0  0  0  0  0  0  0  0  0
   18.4356   23.4979   35.0128 N   0  0  0  0  0  0  0  0  0  0  0  0
   19.2512   23.7462   33.8099 C   0  0  0  0  0  0  0  0  0  0  0  0
   18.6544   22.1701   35.6045 C   0  0  0  0  0  0  0  0  0  0  0  0
   19.3103   25.7799   37.9902 C   0  0  0  0  0  0  0  0  0  0  0  0
   20.2360   26.7332   37.9197 C   0  0  0  0  0  0  0  0  0  0  0  0
   21.2243   26.3141   36.9568 C   0  0  0  0  0  0  0  0  0  0  0  0
   22.4186   26.8981   36.6956 N   0  0  0  0  0  0  0  0  0  0  0  0
  1  2  1  0
  2  3  2  0
  2  4  1  0
  4  5  2  0
  5  6  1  0
  6  7  2  0
  7  8  1  0
  8  9  2  0
  9 10  1  0
 10 11  2  0
 11 12  1  0
 12 13  2  0
 13 14  1  0
  1 15  1  0
 15 16  2  0
 16 17  1  0
 17 18  2  0
 18 19  1  0
 19 20  1  6
 20 21  1  0
 21 22  1  0
 21 23  1  0
 19 24  1  0
 24 25  2  0
 25 26  1  0
 26 27  2  0
 13  4  1  0
 27 15  1  0
 12  7  1  0
 26 18  1  0
M  END
>  <AAScore>  (1) 
32352.37426554856

>  <RootName>  (1) 
./4ZLY/04_DeltaGEst/trajectory_05/rank_00/lead_0308

$$$$
