confid_0
     RDKit          3D

 29 33  0  0  0  0  0  0  0  0999 V2000
   24.6900   26.1200   35.5300 N   0  0  0  0  0  0  0  0  0  0  0  0
   25.6600   25.6700   34.6600 C   0  0  0  0  0  0  0  0  0  0  0  0
   25.2400   25.0100   33.7200 O   0  0  0  0  0  0  0  0  0  0  0  0
   27.0300   26.2200   34.8800 C   0  0  0  0  0  0  0  0  0  0  0  0
   27.3500   26.7300   36.0700 N   0  0  0  0  0  0  0  0  0  0  0  0
   28.5700   27.1800   36.3300 N   0  0  0  0  0  0  0  0  0  0  0  0
   29.5300   27.1100   35.3900 C   0  0  0  0  0  0  0  0  0  0  0  0
   30.8300   27.5700   35.6500 C   0  0  0  0  0  0  0  0  0  0  0  0
   31.8500   27.5400   34.6900 C   0  0  0  0  0  0  0  0  0  0  0  0
   31.5100   27.1200   33.4000 C   0  0  0  0  0  0  0  0  0  0  0  0
   30.2200   26.6300   33.1100 C   0  0  0  0  0  0  0  0  0  0  0  0
   29.2400   26.6600   34.1000 C   0  0  0  0  0  0  0  0  0  0  0  0
   27.9300   26.2600   33.8100 C   0  0  0  0  0  0  0  0  0  0  0  0
   27.5200   25.7100   32.6100 N   0  0  0  0  0  0  0  0  0  0  0  0
   23.4269   25.4668   35.7599 C   0  0  0  0  0  0  0  0  0  0  0  0
   23.2509   24.2276   35.3814 N   0  0  0  0  0  0  0  0  0  0  0  0
   22.0403   23.4883   35.5761 C   0  0  0  0  0  0  0  0  0  0  0  0
   20.8955   23.9537   35.0958 C   0  0  0  0  0  0  0  0  0  0  0  0
   19.4172   23.7467   35.2320 C   0  0  0  0  0  0  0  0  0  0  0  0
   19.0651   24.8495   34.4569 O   0  0  0  0  0  0  0  0  0  0  0  0
   20.4185   25.0741   34.2178 C   0  0  1  0  0  0  0  0  0  0  0  0
   20.8813   26.4848   34.6340 C   0  0  0  0  0  0  0  0  0  0  0  0
   21.2363   26.6182   36.0994 C   0  0  0  0  0  0  0  0  0  0  0  0
   22.4186   26.1700   36.5952 C   0  0  0  0  0  0  0  0  0  0  0  0
   22.7344   26.3631   37.9462 O   0  0  0  0  0  0  0  0  0  0  0  0
   21.7823   26.7900   38.8725 C   0  0  0  0  0  0  0  0  0  0  0  0
   22.1133   26.9713   40.0732 O   0  0  0  0  0  0  0  0  0  0  0  0
   20.3585   26.9517   38.4426 C   0  0  0  0  0  0  0  0  0  0  0  0
   20.3135   27.4233   36.9881 C   0  0  0  0  0  0  0  0  0  0  0  0
  1  2  1  0
  2  3  2  0
  2  4  1  0
  4  5  2  0
  5  6  1  0
  6  7  2  0
  7  8  1  0
  8  9  2  0
  9 10  1  0
 10 11  2  0
 11 12  1  0
 12 13  2  0
 13 14  1  0
  1 15  1  0
 15 16  2  0
 16 17  1  0
 17 18  2  0
 18 19  1  0
 19 20  1  0
 20 21  1  0
 21 22  1  1
 22 23  1  0
 23 24  2  0
 24 25  1  0
 25 26  1  0
 26 27  2  0
 26 28  1  0
 28 29  1  0
 13  4  1  0
 24 15  1  0
 12  7  1  0
 21 18  1  0
 29 23  1  0
M  END
>  <AAScore>  (1) 
17476.120777328713

>  <RootName>  (1) 
./4ZLY/04_DeltaGEst/trajectory_02/rank_00/lead_0481

$$$$
