confid_9
     RDKit          3D

 26 28  0  0  0  0  0  0  0  0999 V2000
   24.2000   26.2400   35.6900 N   0  0  0  0  0  0  0  0  0  0  0  0
   24.8500   26.2800   34.4800 C   0  0  0  0  0  0  0  0  0  0  0  0
   24.3100   25.7400   33.5400 O   0  0  0  0  0  0  0  0  0  0  0  0
   26.1800   26.9700   34.4700 C   0  0  0  0  0  0  0  0  0  0  0  0
   26.6500   27.6000   35.5500 N   0  0  0  0  0  0  0  0  0  0  0  0
   27.7900   28.2700   35.6200 N   0  0  0  0  0  0  0  0  0  0  0  0
   28.5400   28.3000   34.5100 C   0  0  0  0  0  0  0  0  0  0  0  0
   29.7700   28.9400   34.5600 C   0  0  0  0  0  0  0  0  0  0  0  0
   30.7000   28.8900   33.5000 C   0  0  0  0  0  0  0  0  0  0  0  0
   30.3700   28.1400   32.3700 C   0  0  0  0  0  0  0  0  0  0  0  0
   29.1200   27.5200   32.2800 C   0  0  0  0  0  0  0  0  0  0  0  0
   28.2100   27.6100   33.3300 C   0  0  0  0  0  0  0  0  0  0  0  0
   26.9700   26.9700   33.3100 C   0  0  0  0  0  0  0  0  0  0  0  0
   26.5300   26.2400   32.2200 N   0  0  0  0  0  0  0  0  0  0  0  0
   22.7811   26.0658   35.8481 C   0  0  0  0  0  0  0  0  0  0  0  0
   21.9443   26.1117   34.7754 N   0  0  0  0  0  0  0  0  0  0  0  0
   20.5994   25.9656   34.9205 C   0  0  0  0  0  0  0  0  0  0  0  0
   19.7500   26.0095   33.8112 O   0  0  0  0  0  0  0  0  0  0  0  0
   20.2275   26.2035   32.4851 C   0  0  0  0  0  0  0  0  0  0  0  0
   20.0607   25.7703   36.1919 C   0  0  0  0  0  0  0  0  0  0  0  0
   20.9267   25.7321   37.2905 C   0  0  0  0  0  0  0  0  0  0  0  0
   22.2643   25.8835   37.0928 N   0  0  0  0  0  0  0  0  0  0  0  0
   20.3877   25.5302   38.6762 C   0  0  0  0  0  0  0  0  0  0  0  0
   19.5167   26.5575   38.9901 F   0  0  0  0  0  0  0  0  0  0  0  0
   19.7127   24.3249   38.7417 F   0  0  0  0  0  0  0  0  0  0  0  0
   21.4169   25.5175   39.6015 F   0  0  0  0  0  0  0  0  0  0  0  0
  1  2  1  0
  2  3  2  0
  2  4  1  0
  4  5  2  0
  5  6  1  0
  6  7  2  0
  7  8  1  0
  8  9  2  0
  9 10  1  0
 10 11  2  0
 11 12  1  0
 12 13  2  0
 13 14  1  0
  1 15  1  0
 15 16  2  0
 16 17  1  0
 17 18  1  0
 18 19  1  0
 17 20  2  0
 20 21  1  0
 21 22  2  0
 21 23  1  0
 23 24  1  0
 23 25  1  0
 23 26  1  0
 13  4  1  0
 22 15  1  0
 12  7  1  0
M  END
>  <AAScore>  (1) 
98.63650963416016

>  <RootName>  (1) 
./4ZLY/04_DeltaGEst/trajectory_04/rank_00/lead_0106

$$$$
