confid_13
     RDKit          3D

 25 26  0  0  0  0  0  0  0  0999 V2000
   24.5700   26.8800   35.5900 N   0  0  0  0  0  0  0  0  0  0  0  0
   25.5000   26.4000   34.6900 C   0  0  0  0  0  0  0  0  0  0  0  0
   25.1700   25.5200   33.9100 O   0  0  0  0  0  0  0  0  0  0  0  0
   26.8400   27.0200   34.7400 C   0  0  0  0  0  0  0  0  0  0  0  0
   27.3800   27.2800   35.9400 N   0  0  0  0  0  0  0  0  0  0  0  0
   28.6200   27.7400   36.0300 N   0  0  0  0  0  0  0  0  0  0  0  0
   29.3800   28.0000   34.9600 C   0  0  0  0  0  0  0  0  0  0  0  0
   30.6700   28.5000   35.1300 C   0  0  0  0  0  0  0  0  0  0  0  0
   31.5400   28.6100   34.0300 C   0  0  0  0  0  0  0  0  0  0  0  0
   31.0900   28.2200   32.7700 C   0  0  0  0  0  0  0  0  0  0  0  0
   29.8000   27.7000   32.6000 C   0  0  0  0  0  0  0  0  0  0  0  0
   28.9600   27.5500   33.7100 C   0  0  0  0  0  0  0  0  0  0  0  0
   27.6600   27.0300   33.5900 C   0  0  0  0  0  0  0  0  0  0  0  0
   27.1600   26.7400   32.3400 N   0  0  0  0  0  0  0  0  0  0  0  0
   33.1643   29.2652   34.2407 S   0  0  0  0  0  6  0  0  0  0  0  0
   33.6819   28.8566   35.5922 O   0  0  0  0  0  0  0  0  0  0  0  0
   34.0789   28.6779   33.2024 O   0  0  0  0  0  0  0  0  0  0  0  0
   33.1812   31.0630   34.1178 C   0  0  1  0  0  0  0  0  0  0  0  0
   32.3177   31.5937   32.9478 C   0  0  0  0  0  0  0  0  0  0  0  0
   32.8815   31.2926   31.5370 C   0  0  0  0  0  0  0  0  0  0  0  0
   34.1273   32.1363   31.2250 C   0  0  0  0  0  0  0  0  0  0  0  0
   31.8022   31.5516   30.4777 C   0  0  0  0  0  0  0  0  0  0  0  0
   32.6988   31.6614   35.4214 C   0  0  0  0  0  0  0  0  0  0  0  0
   31.5378   31.5048   35.7698 O   0  0  0  0  0  0  0  0  0  0  0  0
   33.6163   32.4574   36.3029 C   0  0  0  0  0  0  0  0  0  0  0  0
  1  2  1  0
  2  3  2  0
  2  4  1  0
  4  5  2  0
  5  6  1  0
  6  7  2  0
  7  8  1  0
  8  9  2  0
  9 10  1  0
 10 11  2  0
 11 12  1  0
 12 13  2  0
 13 14  1  0
  9 15  1  0
 15 16  2  0
 15 17  2  0
 15 18  1  0
 18 19  1  6
 19 20  1  0
 20 21  1  0
 20 22  1  0
 18 23  1  0
 23 24  2  0
 23 25  1  0
 13  4  1  0
 12  7  1  0
M  END
>  <AAScore>  (1) 
-5.557882450023598

>  <RootName>  (1) 
./4ZLY/04_DeltaGEst/trajectory_05/rank_01/lead_0141

$$$$
