confid_19
     RDKit          3D

 27 30  0  0  0  0  0  0  0  0999 V2000
   24.5700   26.8800   35.5900 N   0  0  0  0  0  0  0  0  0  0  0  0
   25.5000   26.4000   34.6900 C   0  0  0  0  0  0  0  0  0  0  0  0
   25.1700   25.5200   33.9100 O   0  0  0  0  0  0  0  0  0  0  0  0
   26.8400   27.0200   34.7400 C   0  0  0  0  0  0  0  0  0  0  0  0
   27.3800   27.2800   35.9400 N   0  0  0  0  0  0  0  0  0  0  0  0
   28.6200   27.7400   36.0300 N   0  0  0  0  0  0  0  0  0  0  0  0
   29.3800   28.0000   34.9600 C   0  0  0  0  0  0  0  0  0  0  0  0
   30.6700   28.5000   35.1300 C   0  0  0  0  0  0  0  0  0  0  0  0
   31.5400   28.6100   34.0300 C   0  0  0  0  0  0  0  0  0  0  0  0
   31.0900   28.2200   32.7700 C   0  0  0  0  0  0  0  0  0  0  0  0
   29.8000   27.7000   32.6000 C   0  0  0  0  0  0  0  0  0  0  0  0
   28.9600   27.5500   33.7100 C   0  0  0  0  0  0  0  0  0  0  0  0
   27.6600   27.0300   33.5900 C   0  0  0  0  0  0  0  0  0  0  0  0
   27.1600   26.7400   32.3400 N   0  0  0  0  0  0  0  0  0  0  0  0
   23.1503   26.6787   35.4793 C   0  0  0  0  0  0  0  0  0  0  0  0
   22.4009   26.6022   36.6225 N   0  0  0  0  0  0  0  0  0  0  0  0
   21.0472   26.4407   36.5952 C   0  0  0  0  0  0  0  0  0  0  0  0
   20.4088   26.3589   35.3609 C   0  0  0  0  0  0  0  0  0  0  0  0
   18.9684   26.1997   35.0714 C   0  0  0  0  0  0  0  0  0  0  0  0
   18.9042   25.9663   33.6102 N   0  0  0  0  0  0  0  0  0  0  0  0
   17.6947   26.5260   32.9723 C   0  0  0  0  0  0  0  0  0  0  0  0
   16.4611   25.7092   33.3471 C   0  0  0  0  0  0  0  0  0  0  0  0
   20.2089   26.4056   33.0373 C   0  0  2  0  0  0  0  0  0  0  0  0
   21.1207   26.4585   34.2050 C   0  0  0  0  0  0  0  0  0  0  0  0
   22.5056   26.6278   34.2232 C   0  0  0  0  0  0  0  0  0  0  0  0
   20.1680   27.7431   32.4059 C   0  0  0  0  0  0  0  0  0  0  0  0
   20.1372   28.7896   31.9125 N   0  0  0  0  0  0  0  0  0  0  0  0
  1  2  1  0
  2  3  2  0
  2  4  1  0
  4  5  2  0
  5  6  1  0
  6  7  2  0
  7  8  1  0
  8  9  2  0
  9 10  1  0
 10 11  2  0
 11 12  1  0
 12 13  2  0
 13 14  1  0
  1 15  1  0
 15 16  2  0
 16 17  1  0
 17 18  2  0
 18 19  1  0
 19 20  1  0
 20 21  1  0
 21 22  1  0
 20 23  1  0
 23 24  1  0
 24 25  2  0
 23 26  1  1
 26 27  3  0
 13  4  1  0
 25 15  1  0
 12  7  1  0
 24 18  1  0
M  END
>  <AAScore>  (1) 
11689.22282636485

>  <RootName>  (1) 
./4ZLY/04_DeltaGEst/trajectory_05/rank_00/lead_0476

$$$$
