confid_16
     RDKit          3D

 28 31  0  0  0  0  0  0  0  0999 V2000
   24.6900   26.1200   35.5300 N   0  0  0  0  0  0  0  0  0  0  0  0
   25.6600   25.6700   34.6600 C   0  0  0  0  0  0  0  0  0  0  0  0
   25.2400   25.0100   33.7200 O   0  0  0  0  0  0  0  0  0  0  0  0
   27.0300   26.2200   34.8800 C   0  0  0  0  0  0  0  0  0  0  0  0
   27.3500   26.7300   36.0700 N   0  0  0  0  0  0  0  0  0  0  0  0
   28.5700   27.1800   36.3300 N   0  0  0  0  0  0  0  0  0  0  0  0
   29.5300   27.1100   35.3900 C   0  0  0  0  0  0  0  0  0  0  0  0
   30.8300   27.5700   35.6500 C   0  0  0  0  0  0  0  0  0  0  0  0
   31.8500   27.5400   34.6900 C   0  0  0  0  0  0  0  0  0  0  0  0
   31.5100   27.1200   33.4000 C   0  0  0  0  0  0  0  0  0  0  0  0
   30.2200   26.6300   33.1100 C   0  0  0  0  0  0  0  0  0  0  0  0
   29.2400   26.6600   34.1000 C   0  0  0  0  0  0  0  0  0  0  0  0
   27.9300   26.2600   33.8100 C   0  0  0  0  0  0  0  0  0  0  0  0
   27.5200   25.7100   32.6100 N   0  0  0  0  0  0  0  0  0  0  0  0
   23.2680   26.1127   35.2785 C   0  0  0  0  0  0  0  0  0  0  0  0
   22.7714   25.8443   34.0286 N   0  0  0  0  0  0  0  0  0  0  0  0
   21.4338   25.8384   33.7630 C   0  0  0  0  0  0  0  0  0  0  0  0
   20.5468   26.1175   34.7991 C   0  0  0  0  0  0  0  0  0  0  0  0
   19.0734   26.1916   34.7599 C   0  0  0  0  0  0  0  0  0  0  0  0
   18.6537   26.4178   36.1665 N   0  0  0  0  0  0  0  0  0  0  0  0
   17.6603   27.5027   36.2989 C   0  0  0  0  0  0  0  0  0  0  0  0
   16.2931   27.0766   35.7406 C   0  0  0  0  0  0  0  0  0  0  0  0
   15.8870   25.7488   36.2530 N   0  0  0  0  0  0  0  0  0  0  0  0
   14.8453   25.1724   35.3885 C   0  0  0  0  0  0  0  0  0  0  0  0
   15.3799   25.8430   37.6334 C   0  0  0  0  0  0  0  0  0  0  0  0
   19.8807   26.6959   36.9532 C   0  0  0  0  0  0  0  0  0  0  0  0
   21.0072   26.4003   36.0445 C   0  0  0  0  0  0  0  0  0  0  0  0
   22.3726   26.4117   36.3258 C   0  0  0  0  0  0  0  0  0  0  0  0
  1  2  1  0
  2  3  2  0
  2  4  1  0
  4  5  2  0
  5  6  1  0
  6  7  2  0
  7  8  1  0
  8  9  2  0
  9 10  1  0
 10 11  2  0
 11 12  1  0
 12 13  2  0
 13 14  1  0
  1 15  1  0
 15 16  2  0
 16 17  1  0
 17 18  2  0
 18 19  1  0
 19 20  1  0
 20 21  1  0
 21 22  1  0
 22 23  1  0
 23 24  1  0
 23 25  1  0
 20 26  1  0
 26 27  1  0
 27 28  2  0
 13  4  1  0
 28 15  1  0
 12  7  1  0
 27 18  1  0
M  END
>  <AAScore>  (1) 
695.1684763174981

>  <RootName>  (1) 
./4ZLY/04_DeltaGEst/trajectory_02/rank_00/lead_0315

$$$$
