confid_18
     RDKit          3D

 29 31  0  0  0  0  0  0  0  0999 V2000
   24.5700   26.8800   35.5900 N   0  0  0  0  0  0  0  0  0  0  0  0
   25.5000   26.4000   34.6900 C   0  0  0  0  0  0  0  0  0  0  0  0
   25.1700   25.5200   33.9100 O   0  0  0  0  0  0  0  0  0  0  0  0
   26.8400   27.0200   34.7400 C   0  0  0  0  0  0  0  0  0  0  0  0
   27.3800   27.2800   35.9400 N   0  0  0  0  0  0  0  0  0  0  0  0
   28.6200   27.7400   36.0300 N   0  0  0  0  0  0  0  0  0  0  0  0
   29.3800   28.0000   34.9600 C   0  0  0  0  0  0  0  0  0  0  0  0
   30.6700   28.5000   35.1300 C   0  0  0  0  0  0  0  0  0  0  0  0
   31.5400   28.6100   34.0300 C   0  0  0  0  0  0  0  0  0  0  0  0
   31.0900   28.2200   32.7700 C   0  0  0  0  0  0  0  0  0  0  0  0
   29.8000   27.7000   32.6000 C   0  0  0  0  0  0  0  0  0  0  0  0
   28.9600   27.5500   33.7100 C   0  0  0  0  0  0  0  0  0  0  0  0
   27.6600   27.0300   33.5900 C   0  0  0  0  0  0  0  0  0  0  0  0
   27.1600   26.7400   32.3400 N   0  0  0  0  0  0  0  0  0  0  0  0
   33.1819   29.2239   34.2455 S   0  0  0  0  0  6  0  0  0  0  0  0
   33.6131   29.9324   32.9920 O   0  0  0  0  0  0  0  0  0  0  0  0
   33.1938   30.2153   35.3751 O   0  0  0  0  0  0  0  0  0  0  0  0
   34.3604   27.9172   34.6080 C   0  0  0  0  0  0  0  0  0  0  0  0
   34.2484   26.7175   33.6867 C   0  0  0  0  0  0  0  0  0  0  0  0
   33.7073   25.8481   34.7479 N   0  0  0  0  0  0  0  0  0  0  0  0
   34.5474   24.6527   35.0333 C   0  0  2  0  0  0  0  0  0  0  0  0
   34.5217   23.6829   33.7953 C   0  0  0  0  0  0  0  0  0  0  0  0
   35.6676   22.6564   33.8018 C   0  0  0  0  0  0  0  0  0  0  0  0
   33.1671   22.9885   33.5885 C   0  0  0  0  0  0  0  0  0  0  0  0
   34.0563   23.9689   36.3462 C   0  0  0  0  0  0  0  0  0  0  0  0
   34.5953   22.7070   36.4983 F   0  0  0  0  0  0  0  0  0  0  0  0
   34.4379   24.7067   37.4509 F   0  0  0  0  0  0  0  0  0  0  0  0
   32.6758   23.8666   36.3516 F   0  0  0  0  0  0  0  0  0  0  0  0
   33.9020   26.9620   35.6941 C   0  0  0  0  0  0  0  0  0  0  0  0
  1  2  1  0
  2  3  2  0
  2  4  1  0
  4  5  2  0
  5  6  1  0
  6  7  2  0
  7  8  1  0
  8  9  2  0
  9 10  1  0
 10 11  2  0
 11 12  1  0
 12 13  2  0
 13 14  1  0
  9 15  1  0
 15 16  2  0
 15 17  2  0
 15 18  1  0
 18 19  1  0
 19 20  1  0
 20 21  1  0
 21 22  1  6
 22 23  1  0
 22 24  1  0
 21 25  1  0
 25 26  1  0
 25 27  1  0
 25 28  1  0
 20 29  1  0
 13  4  1  0
 29 18  1  0
 12  7  1  0
M  END
>  <AAScore>  (1) 
624.2081810415268

>  <RootName>  (1) 
./4ZLY/04_DeltaGEst/trajectory_05/rank_01/lead_0236

$$$$
