confid_9
     RDKit          3D

 27 30  0  0  0  0  0  0  0  0999 V2000
   24.2000   26.2400   35.6900 N   0  0  0  0  0  0  0  0  0  0  0  0
   24.8500   26.2800   34.4800 C   0  0  0  0  0  0  0  0  0  0  0  0
   24.3100   25.7400   33.5400 O   0  0  0  0  0  0  0  0  0  0  0  0
   26.1800   26.9700   34.4700 C   0  0  0  0  0  0  0  0  0  0  0  0
   26.6500   27.6000   35.5500 N   0  0  0  0  0  0  0  0  0  0  0  0
   27.7900   28.2700   35.6200 N   0  0  0  0  0  0  0  0  0  0  0  0
   28.5400   28.3000   34.5100 C   0  0  0  0  0  0  0  0  0  0  0  0
   29.7700   28.9400   34.5600 C   0  0  0  0  0  0  0  0  0  0  0  0
   30.7000   28.8900   33.5000 C   0  0  0  0  0  0  0  0  0  0  0  0
   30.3700   28.1400   32.3700 C   0  0  0  0  0  0  0  0  0  0  0  0
   29.1200   27.5200   32.2800 C   0  0  0  0  0  0  0  0  0  0  0  0
   28.2100   27.6100   33.3300 C   0  0  0  0  0  0  0  0  0  0  0  0
   26.9700   26.9700   33.3100 C   0  0  0  0  0  0  0  0  0  0  0  0
   26.5300   26.2400   32.2200 N   0  0  0  0  0  0  0  0  0  0  0  0
   30.1303   29.6757   35.7393 N   0  0  0  0  0  0  0  0  0  0  0  0
   31.1727   29.1264   36.6182 C   0  0  0  0  0  0  0  0  0  0  0  0
   31.1450   29.7609   38.0180 C   0  0  0  0  0  0  0  0  0  0  0  0
   31.6199   31.1597   38.0562 N   0  0  0  0  0  0  0  0  0  0  0  0
   31.7710   31.7874   39.3727 C   0  0  0  0  0  0  0  0  0  0  0  0
   31.8303   31.9732   36.8746 C   0  0  0  0  0  0  0  0  0  0  0  0
   30.9015   31.9730   35.8047 C   0  0  0  0  0  0  0  0  0  0  0  0
   29.6964   31.0727   35.8562 C   0  0  0  0  0  0  0  0  0  0  0  0
   31.1498   32.7657   34.6658 C   0  0  0  0  0  0  0  0  0  0  0  0
   32.2898   33.5701   34.6019 C   0  0  0  0  0  0  0  0  0  0  0  0
   33.1968   33.5848   35.6599 C   0  0  0  0  0  0  0  0  0  0  0  0
   32.9711   32.7932   36.7876 C   0  0  0  0  0  0  0  0  0  0  0  0
   30.2953   32.7567   33.6112 F   0  0  0  0  0  0  0  0  0  0  0  0
  1  2  1  0
  2  3  2  0
  2  4  1  0
  4  5  2  0
  5  6  1  0
  6  7  2  0
  7  8  1  0
  8  9  2  0
  9 10  1  0
 10 11  2  0
 11 12  1  0
 12 13  2  0
 13 14  1  0
  8 15  1  0
 15 16  1  0
 16 17  1  0
 17 18  1  0
 18 19  1  0
 18 20  1  0
 20 21  2  0
 21 22  1  0
 21 23  1  0
 23 24  2  0
 24 25  1  0
 25 26  2  0
 23 27  1  0
 13  4  1  0
 22 15  1  0
 12  7  1  0
 26 20  1  0
M  END
>  <AAScore>  (1) 
-6.441316585593859

>  <RootName>  (1) 
./4ZLY/04_DeltaGEst/trajectory_04/rank_01/lead_0225

$$$$
