confid_1
     RDKit          3D

 28 31  0  0  0  0  0  0  0  0999 V2000
   25.3300   26.2600   34.7600 N   0  0  0  0  0  0  0  0  0  0  0  0
   26.1200   25.9200   33.6900 C   0  0  0  0  0  0  0  0  0  0  0  0
   25.6300   25.1100   32.9400 O   0  0  0  0  0  0  0  0  0  0  0  0
   27.5200   26.3800   33.4600 C   0  0  0  0  0  0  0  0  0  0  0  0
   28.1600   26.6300   34.6100 N   0  0  0  0  0  0  0  0  0  0  0  0
   29.4800   26.8500   34.5700 N   0  0  0  0  0  0  0  0  0  0  0  0
   30.1900   26.7800   33.4400 C   0  0  0  0  0  0  0  0  0  0  0  0
   31.5600   27.0500   33.5000 C   0  0  0  0  0  0  0  0  0  0  0  0
   32.2700   27.2400   32.3100 C   0  0  0  0  0  0  0  0  0  0  0  0
   31.6100   27.2500   31.0800 C   0  0  0  0  0  0  0  0  0  0  0  0
   30.2700   26.8700   31.0600 C   0  0  0  0  0  0  0  0  0  0  0  0
   29.5100   26.6900   32.2300 C   0  0  0  0  0  0  0  0  0  0  0  0
   28.1400   26.4100   32.2000 C   0  0  0  0  0  0  0  0  0  0  0  0
   27.4300   26.1300   31.0500 N   0  0  0  0  0  0  0  0  0  0  0  0
   23.9573   25.8756   34.9560 C   0  0  0  0  0  0  0  0  0  0  0  0
   23.2289   25.1589   34.0720 N   0  0  0  0  0  0  0  0  0  0  0  0
   21.9548   24.9436   34.5008 C   0  0  0  0  0  0  0  0  0  0  0  0
   20.9764   24.2380   33.5926 C   0  0  0  0  0  0  0  0  0  0  0  0
   19.8524   23.6729   34.3670 N   0  0  0  0  0  0  0  0  0  0  0  0
   20.0170   22.2325   34.6253 C   0  0  0  0  0  0  0  0  0  0  0  0
   18.4908   24.0429   33.9011 C   0  0  2  0  0  0  0  0  0  0  0  0
   18.1573   23.4512   32.5167 C   0  0  0  0  0  0  0  0  0  0  0  0
   18.2353   25.5822   33.9344 C   0  0  0  0  0  0  0  0  0  0  0  0
   19.2904   26.3219   34.5224 O   0  0  0  0  0  0  0  0  0  0  0  0
   19.2398   26.3226   35.9377 C   0  0  0  0  0  0  0  0  0  0  0  0
   20.3753   25.4820   36.5451 C   0  0  0  0  0  0  0  0  0  0  0  0
   21.6597   25.5324   35.7514 C   0  0  0  0  0  0  0  0  0  0  0  0
   23.0525   26.3022   36.3027 S   0  0  0  0  0  0  0  0  0  0  0  0
  1  2  1  0
  2  3  2  0
  2  4  1  0
  4  5  2  0
  5  6  1  0
  6  7  2  0
  7  8  1  0
  8  9  2  0
  9 10  1  0
 10 11  2  0
 11 12  1  0
 12 13  2  0
 13 14  1  0
  1 15  1  0
 15 16  2  0
 16 17  1  0
 17 18  1  0
 18 19  1  0
 19 20  1  0
 19 21  1  0
 21 22  1  6
 21 23  1  0
 23 24  1  0
 24 25  1  0
 25 26  1  0
 26 27  1  0
 27 28  1  0
 13  4  1  0
 28 15  1  0
 12  7  1  0
 27 17  2  0
M  END
>  <AAScore>  (1) 
3916.368665943372

>  <RootName>  (1) 
./4ZLY/04_DeltaGEst/trajectory_03/rank_00/lead_0044

$$$$
