confid_4
     RDKit          3D

 27 30  0  0  0  0  0  0  0  0999 V2000
   24.6900   26.1200   35.5300 N   0  0  0  0  0  0  0  0  0  0  0  0
   25.6600   25.6700   34.6600 C   0  0  0  0  0  0  0  0  0  0  0  0
   25.2400   25.0100   33.7200 O   0  0  0  0  0  0  0  0  0  0  0  0
   27.0300   26.2200   34.8800 C   0  0  0  0  0  0  0  0  0  0  0  0
   27.3500   26.7300   36.0700 N   0  0  0  0  0  0  0  0  0  0  0  0
   28.5700   27.1800   36.3300 N   0  0  0  0  0  0  0  0  0  0  0  0
   29.5300   27.1100   35.3900 C   0  0  0  0  0  0  0  0  0  0  0  0
   30.8300   27.5700   35.6500 C   0  0  0  0  0  0  0  0  0  0  0  0
   31.8500   27.5400   34.6900 C   0  0  0  0  0  0  0  0  0  0  0  0
   31.5100   27.1200   33.4000 C   0  0  0  0  0  0  0  0  0  0  0  0
   30.2200   26.6300   33.1100 C   0  0  0  0  0  0  0  0  0  0  0  0
   29.2400   26.6600   34.1000 C   0  0  0  0  0  0  0  0  0  0  0  0
   27.9300   26.2600   33.8100 C   0  0  0  0  0  0  0  0  0  0  0  0
   27.5200   25.7100   32.6100 N   0  0  0  0  0  0  0  0  0  0  0  0
   31.1472   28.0591   36.9659 N   0  0  0  0  0  0  0  0  0  0  0  0
   31.1853   27.1340   38.0994 C   0  0  0  0  0  0  0  0  0  0  0  0
   30.4642   27.7615   39.2889 C   0  0  0  0  0  0  0  0  0  0  0  0
   30.9305   29.1733   39.5402 C   0  0  0  0  0  0  0  0  0  0  0  0
   30.7218   29.7459   40.8038 C   0  0  0  0  0  0  0  0  0  0  0  0
   31.0917   31.0689   41.0529 C   0  0  0  0  0  0  0  0  0  0  0  0
   31.6755   31.8436   40.0408 C   0  0  0  0  0  0  0  0  0  0  0  0
   32.0483   33.2760   40.3027 C   0  0  0  0  0  0  0  0  0  0  0  0
   30.9159   34.1535   39.9913 C   0  0  0  0  0  0  0  0  0  0  0  0
   30.0220   34.8462   39.7454 N   0  0  0  0  0  0  0  0  0  0  0  0
   31.8603   31.2859   38.7665 C   0  0  0  0  0  0  0  0  0  0  0  0
   31.4847   29.9594   38.5033 C   0  0  0  0  0  0  0  0  0  0  0  0
   31.7389   29.3915   37.1264 C   0  0  0  0  0  0  0  0  0  0  0  0
  1  2  1  0
  2  3  2  0
  2  4  1  0
  4  5  2  0
  5  6  1  0
  6  7  2  0
  7  8  1  0
  8  9  2  0
  9 10  1  0
 10 11  2  0
 11 12  1  0
 12 13  2  0
 13 14  1  0
  8 15  1  0
 15 16  1  0
 16 17  1  0
 17 18  1  0
 18 19  2  0
 19 20  1  0
 20 21  2  0
 21 22  1  0
 22 23  1  0
 23 24  3  0
 21 25  1  0
 25 26  2  0
 26 27  1  0
 13  4  1  0
 27 15  1  0
 12  7  1  0
 26 18  1  0
M  END
>  <AAScore>  (1) 
-6.902708597237803

>  <RootName>  (1) 
./4ZLY/04_DeltaGEst/trajectory_02/rank_01/lead_0147

$$$$
