confid_1
     RDKit          3D

 30 33  0  0  0  0  0  0  0  0999 V2000
   25.3300   26.2600   34.7600 N   0  0  0  0  0  0  0  0  0  0  0  0
   26.1200   25.9200   33.6900 C   0  0  0  0  0  0  0  0  0  0  0  0
   25.6300   25.1100   32.9400 O   0  0  0  0  0  0  0  0  0  0  0  0
   27.5200   26.3800   33.4600 C   0  0  0  0  0  0  0  0  0  0  0  0
   28.1600   26.6300   34.6100 N   0  0  0  0  0  0  0  0  0  0  0  0
   29.4800   26.8500   34.5700 N   0  0  0  0  0  0  0  0  0  0  0  0
   30.1900   26.7800   33.4400 C   0  0  0  0  0  0  0  0  0  0  0  0
   31.5600   27.0500   33.5000 C   0  0  0  0  0  0  0  0  0  0  0  0
   32.2700   27.2400   32.3100 C   0  0  0  0  0  0  0  0  0  0  0  0
   31.6100   27.2500   31.0800 C   0  0  0  0  0  0  0  0  0  0  0  0
   30.2700   26.8700   31.0600 C   0  0  0  0  0  0  0  0  0  0  0  0
   29.5100   26.6900   32.2300 C   0  0  0  0  0  0  0  0  0  0  0  0
   28.1400   26.4100   32.2000 C   0  0  0  0  0  0  0  0  0  0  0  0
   27.4300   26.1300   31.0500 N   0  0  0  0  0  0  0  0  0  0  0  0
   27.2802   24.7212   30.6357 C   0  0  0  0  0  0  0  0  0  0  0  0
   28.2363   24.3352   29.5041 C   0  0  0  0  0  0  0  0  0  0  0  0
   27.8895   24.9825   28.2316 N   0  0  0  0  0  0  0  0  0  0  0  0
   28.9873   25.5016   27.4092 C   0  0  0  0  0  0  0  0  0  0  0  0
   26.7122   24.5404   27.5331 C   0  0  0  0  0  0  0  0  0  0  0  0
   25.4648   25.2239   27.6190 C   0  0  0  0  0  0  0  0  0  0  0  0
   24.3865   24.7513   26.8452 C   0  0  0  0  0  0  0  0  0  0  0  0
   24.5303   23.6517   25.9994 C   0  0  0  0  0  0  0  0  0  0  0  0
   25.7511   22.9898   25.9184 C   0  0  0  0  0  0  0  0  0  0  0  0
   26.8328   23.4301   26.6781 C   0  0  0  0  0  0  0  0  0  0  0  0
   25.1433   26.3628   28.5744 C   0  0  0  0  0  0  0  0  0  0  0  0
   26.3123   27.0829   29.1069 N   0  0  0  0  0  0  0  0  0  0  0  0
   26.4863   27.1502   30.5691 C   0  0  0  0  0  0  0  0  0  0  0  0
   27.0864   27.9696   28.2655 C   0  0  0  0  0  0  0  0  0  0  0  0
   28.1321   28.5100   28.7182 O   0  0  0  0  0  0  0  0  0  0  0  0
   26.6599   28.3030   26.8658 C   0  0  0  0  0  0  0  0  0  0  0  0
  1  2  1  0
  2  3  2  0
  2  4  1  0
  4  5  2  0
  5  6  1  0
  6  7  2  0
  7  8  1  0
  8  9  2  0
  9 10  1  0
 10 11  2  0
 11 12  1  0
 12 13  2  0
 13 14  1  0
 14 15  1  0
 15 16  1  0
 16 17  1  0
 17 18  1  0
 17 19  1  0
 19 20  2  0
 20 21  1  0
 21 22  2  0
 22 23  1  0
 23 24  2  0
 20 25  1  0
 25 26  1  0
 26 27  1  0
 26 28  1  0
 28 29  2  0
 28 30  1  0
 13  4  1  0
 27 14  1  0
 12  7  1  0
 24 19  1  0
M  END
>  <AAScore>  (1) 
50.40043431250828

>  <RootName>  (1) 
./4ZLY/04_DeltaGEst/trajectory_03/rank_01/lead_0179

$$$$
