confid_0
     RDKit          3D

 29 32  0  0  0  0  0  0  0  0999 V2000
   24.5700   26.8800   35.5900 N   0  0  0  0  0  0  0  0  0  0  0  0
   25.5000   26.4000   34.6900 C   0  0  0  0  0  0  0  0  0  0  0  0
   25.1700   25.5200   33.9100 O   0  0  0  0  0  0  0  0  0  0  0  0
   26.8400   27.0200   34.7400 C   0  0  0  0  0  0  0  0  0  0  0  0
   27.3800   27.2800   35.9400 N   0  0  0  0  0  0  0  0  0  0  0  0
   28.6200   27.7400   36.0300 N   0  0  0  0  0  0  0  0  0  0  0  0
   29.3800   28.0000   34.9600 C   0  0  0  0  0  0  0  0  0  0  0  0
   30.6700   28.5000   35.1300 C   0  0  0  0  0  0  0  0  0  0  0  0
   31.5400   28.6100   34.0300 C   0  0  0  0  0  0  0  0  0  0  0  0
   31.0900   28.2200   32.7700 C   0  0  0  0  0  0  0  0  0  0  0  0
   29.8000   27.7000   32.6000 C   0  0  0  0  0  0  0  0  0  0  0  0
   28.9600   27.5500   33.7100 C   0  0  0  0  0  0  0  0  0  0  0  0
   27.6600   27.0300   33.5900 C   0  0  0  0  0  0  0  0  0  0  0  0
   27.1600   26.7400   32.3400 N   0  0  0  0  0  0  0  0  0  0  0  0
   23.3618   26.1922   35.9552 C   0  0  0  0  0  0  0  0  0  0  0  0
   22.2550   26.9184   36.2571 N   0  0  0  0  0  0  0  0  0  0  0  0
   21.0847   26.3355   36.6214 C   0  0  0  0  0  0  0  0  0  0  0  0
   20.9795   24.9381   36.7191 C   0  0  0  0  0  0  0  0  0  0  0  0
   19.6502   24.3356   37.1196 C   0  0  0  0  0  0  0  0  0  0  0  0
   18.8674   23.9415   35.9262 N   0  0  0  0  0  0  0  0  0  0  0  0
   19.2501   22.5976   35.4248 C   0  0  0  0  0  0  0  0  0  0  0  0
   20.4749   22.6860   34.4617 C   0  0  2  0  0  0  0  0  0  0  0  0
   20.1154   22.0084   33.1202 C   0  0  0  0  0  0  0  0  0  0  0  0
   21.7029   22.0771   35.0610 N   0  0  0  0  0  0  0  0  0  0  0  0
   22.8591   22.1395   34.1400 C   0  0  0  0  0  0  0  0  0  0  0  0
   22.0735   22.6364   36.3886 C   0  0  0  0  0  0  0  0  0  0  0  0
   22.1168   24.1528   36.4104 C   0  0  0  0  0  0  0  0  0  0  0  0
   23.3113   24.7940   36.0467 C   0  0  0  0  0  0  0  0  0  0  0  0
   17.4272   23.9761   36.2381 C   0  0  0  0  0  0  0  0  0  0  0  0
  1  2  1  0
  2  3  2  0
  2  4  1  0
  4  5  2  0
  5  6  1  0
  6  7  2  0
  7  8  1  0
  8  9  2  0
  9 10  1  0
 10 11  2  0
 11 12  1  0
 12 13  2  0
 13 14  1  0
  1 15  1  0
 15 16  2  0
 16 17  1  0
 17 18  2  0
 18 19  1  0
 19 20  1  0
 20 21  1  0
 21 22  1  0
 22 23  1  6
 22 24  1  0
 24 25  1  0
 24 26  1  0
 26 27  1  0
 27 28  2  0
 20 29  1  0
 13  4  1  0
 28 15  1  0
 12  7  1  0
 27 18  1  0
M  END
>  <AAScore>  (1) 
3200.616910426831

>  <RootName>  (1) 
./4ZLY/04_DeltaGEst/trajectory_05/rank_00/lead_0163

$$$$
