confid_3
     RDKit          3D

 27 30  0  0  0  0  0  0  0  0999 V2000
   24.5500   26.3900   36.2500 N   0  0  0  0  0  0  0  0  0  0  0  0
   25.6000   26.1300   35.4000 C   0  0  0  0  0  0  0  0  0  0  0  0
   25.4300   25.4300   34.4200 O   0  0  0  0  0  0  0  0  0  0  0  0
   26.9800   26.6300   35.7100 C   0  0  0  0  0  0  0  0  0  0  0  0
   27.3200   26.8200   36.9800 N   0  0  0  0  0  0  0  0  0  0  0  0
   28.4700   27.4000   37.3100 N   0  0  0  0  0  0  0  0  0  0  0  0
   29.4000   27.6300   36.3700 C   0  0  0  0  0  0  0  0  0  0  0  0
   30.6600   28.0500   36.8000 C   0  0  0  0  0  0  0  0  0  0  0  0
   31.5700   28.3600   35.7800 C   0  0  0  0  0  0  0  0  0  0  0  0
   31.3700   28.1000   34.4300 C   0  0  0  0  0  0  0  0  0  0  0  0
   30.1200   27.5900   34.0500 C   0  0  0  0  0  0  0  0  0  0  0  0
   29.1500   27.3400   35.0300 C   0  0  0  0  0  0  0  0  0  0  0  0
   27.8800   26.8900   34.6600 C   0  0  0  0  0  0  0  0  0  0  0  0
   27.4800   26.6100   33.3700 N   0  0  0  0  0  0  0  0  0  0  0  0
   31.0062   28.3136   38.2191 C   0  0  0  0  0  0  0  0  0  0  0  0
   30.1993   29.1376   39.0148 C   0  0  0  0  0  0  0  0  0  0  0  0
   30.5419   29.4018   40.3483 C   0  0  0  0  0  0  0  0  0  0  0  0
   29.6229   30.2503   41.1946 C   0  0  0  0  0  0  0  0  0  0  0  0
   30.4176   31.0435   42.2334 C   0  0  0  0  0  0  0  0  0  0  0  0
   31.2643   30.1408   43.0206 N   0  0  0  0  0  0  0  0  0  0  0  0
   31.9896   29.0965   42.3450 C   0  0  0  0  0  0  0  0  0  0  0  0
   32.8306   28.4078   42.9836 O   0  0  0  0  0  0  0  0  0  0  0  0
   31.6972   28.8138   40.9131 C   0  0  0  0  0  0  0  0  0  0  0  0
   32.5239   28.0011   40.0986 C   0  0  0  0  0  0  0  0  0  0  0  0
   34.0264   27.2802   40.6709 Cl  0  0  0  0  0  0  0  0  0  0  0  0
   32.1733   27.7650   38.7648 C   0  0  0  0  0  0  0  0  0  0  0  0
   31.3996   30.3132   44.4688 C   0  0  0  0  0  0  0  0  0  0  0  0
  1  2  1  0
  2  3  2  0
  2  4  1  0
  4  5  2  0
  5  6  1  0
  6  7  2  0
  7  8  1  0
  8  9  2  0
  9 10  1  0
 10 11  2  0
 11 12  1  0
 12 13  2  0
 13 14  1  0
  8 15  1  0
 15 16  2  0
 16 17  1  0
 17 18  1  0
 18 19  1  0
 19 20  1  0
 20 21  1  0
 21 22  2  0
 21 23  1  0
 23 24  1  0
 24 25  1  0
 24 26  2  0
 20 27  1  0
 13  4  1  0
 26 15  1  0
 12  7  1  0
 23 17  2  0
M  END
>  <AAScore>  (1) 
1470.6797907151306

>  <RootName>  (1) 
./4ZLY/04_DeltaGEst/trajectory_01/rank_01/lead_0486

$$$$
