confid_16
     RDKit          3D

 28 31  0  0  0  0  0  0  0  0999 V2000
   25.3300   26.2600   34.7600 N   0  0  0  0  0  0  0  0  0  0  0  0
   26.1200   25.9200   33.6900 C   0  0  0  0  0  0  0  0  0  0  0  0
   25.6300   25.1100   32.9400 O   0  0  0  0  0  0  0  0  0  0  0  0
   27.5200   26.3800   33.4600 C   0  0  0  0  0  0  0  0  0  0  0  0
   28.1600   26.6300   34.6100 N   0  0  0  0  0  0  0  0  0  0  0  0
   29.4800   26.8500   34.5700 N   0  0  0  0  0  0  0  0  0  0  0  0
   30.1900   26.7800   33.4400 C   0  0  0  0  0  0  0  0  0  0  0  0
   31.5600   27.0500   33.5000 C   0  0  0  0  0  0  0  0  0  0  0  0
   32.2700   27.2400   32.3100 C   0  0  0  0  0  0  0  0  0  0  0  0
   31.6100   27.2500   31.0800 C   0  0  0  0  0  0  0  0  0  0  0  0
   30.2700   26.8700   31.0600 C   0  0  0  0  0  0  0  0  0  0  0  0
   29.5100   26.6900   32.2300 C   0  0  0  0  0  0  0  0  0  0  0  0
   28.1400   26.4100   32.2000 C   0  0  0  0  0  0  0  0  0  0  0  0
   27.4300   26.1300   31.0500 N   0  0  0  0  0  0  0  0  0  0  0  0
   27.6282   24.8494   30.3621 C   0  0  0  0  0  0  0  0  0  0  0  0
   26.3255   24.3938   29.7001 C   0  0  0  0  0  0  0  0  0  0  0  0
   25.7158   25.4676   28.9017 N   0  0  0  0  0  0  0  0  0  0  0  0
   24.6943   25.1121   27.9487 C   0  0  0  0  0  0  0  0  0  0  0  0
   23.9272   24.1422   28.1964 O   0  0  0  0  0  0  0  0  0  0  0  0
   24.5781   25.7946   26.6091 C   0  0  0  0  0  0  0  0  0  0  0  0
   25.3209   25.0042   25.5140 C   0  0  0  0  0  0  0  0  0  0  0  0
   26.8487   24.9920   25.7452 C   0  0  0  0  0  0  0  0  0  0  0  0
   27.6160   24.6500   24.4545 C   0  0  0  0  0  0  0  0  0  0  0  0
   26.7897   23.9558   23.5416 O   0  0  0  0  0  0  0  0  0  0  0  0
   25.7993   24.8288   23.0225 C   0  0  0  0  0  0  0  0  0  0  0  0
   25.0105   25.5785   24.1220 C   0  0  0  0  0  0  0  0  0  0  0  0
   26.1972   26.8523   29.0171 C   0  0  0  0  0  0  0  0  0  0  0  0
   26.5917   27.1813   30.4614 C   0  0  0  0  0  0  0  0  0  0  0  0
  1  2  1  0
  2  3  2  0
  2  4  1  0
  4  5  2  0
  5  6  1  0
  6  7  2  0
  7  8  1  0
  8  9  2  0
  9 10  1  0
 10 11  2  0
 11 12  1  0
 12 13  2  0
 13 14  1  0
 14 15  1  0
 15 16  1  0
 16 17  1  0
 17 18  1  0
 18 19  2  0
 18 20  1  0
 20 21  1  0
 21 22  1  0
 22 23  1  0
 23 24  1  0
 24 25  1  0
 25 26  1  0
 17 27  1  0
 27 28  1  0
 13  4  1  0
 28 14  1  0
 12  7  1  0
 26 21  1  0
M  END
>  <AAScore>  (1) 
297.466031596538

>  <RootName>  (1) 
./4ZLY/04_DeltaGEst/trajectory_03/rank_01/lead_0434

$$$$
