confid_6
     RDKit          3D

 27 30  0  0  0  0  0  0  0  0999 V2000
   25.3300   26.2600   34.7600 N   0  0  0  0  0  0  0  0  0  0  0  0
   26.1200   25.9200   33.6900 C   0  0  0  0  0  0  0  0  0  0  0  0
   25.6300   25.1100   32.9400 O   0  0  0  0  0  0  0  0  0  0  0  0
   27.5200   26.3800   33.4600 C   0  0  0  0  0  0  0  0  0  0  0  0
   28.1600   26.6300   34.6100 N   0  0  0  0  0  0  0  0  0  0  0  0
   29.4800   26.8500   34.5700 N   0  0  0  0  0  0  0  0  0  0  0  0
   30.1900   26.7800   33.4400 C   0  0  0  0  0  0  0  0  0  0  0  0
   31.5600   27.0500   33.5000 C   0  0  0  0  0  0  0  0  0  0  0  0
   32.2700   27.2400   32.3100 C   0  0  0  0  0  0  0  0  0  0  0  0
   31.6100   27.2500   31.0800 C   0  0  0  0  0  0  0  0  0  0  0  0
   30.2700   26.8700   31.0600 C   0  0  0  0  0  0  0  0  0  0  0  0
   29.5100   26.6900   32.2300 C   0  0  0  0  0  0  0  0  0  0  0  0
   28.1400   26.4100   32.2000 C   0  0  0  0  0  0  0  0  0  0  0  0
   27.4300   26.1300   31.0500 N   0  0  0  0  0  0  0  0  0  0  0  0
   24.1386   25.5694   35.1829 C   0  0  0  0  0  0  0  0  0  0  0  0
   23.8441   24.3720   34.7923 N   0  0  0  0  0  0  0  0  0  0  0  0
   22.6922   23.9686   35.5121 C   0  0  0  0  0  0  0  0  0  0  0  0
   22.2975   24.9057   36.3598 C   0  0  0  0  0  0  0  0  0  0  0  0
   21.2875   24.6592   37.4416 C   0  0  0  0  0  0  0  0  0  0  0  0
   21.3107   25.7172   38.3798 O   0  0  0  0  0  0  0  0  0  0  0  0
   20.1760   26.5486   38.2477 C   0  0  0  0  0  0  0  0  0  0  0  0
   20.1791   27.3444   36.9334 C   0  0  0  0  0  0  0  0  0  0  0  0
   21.5207   28.0599   36.6723 C   0  0  0  0  0  0  0  0  0  0  0  0
   22.4370   27.3609   35.6437 C   0  0  0  0  0  0  0  0  0  0  0  0
   23.3844   28.2953   35.2576 F   0  0  0  0  0  0  0  0  0  0  0  0
   21.7097   27.0185   34.5129 F   0  0  0  0  0  0  0  0  0  0  0  0
   23.1775   26.1168   36.2042 C   0  0  2  0  0  0  0  0  0  0  0  0
  1  2  1  0
  2  3  2  0
  2  4  1  0
  4  5  2  0
  5  6  1  0
  6  7  2  0
  7  8  1  0
  8  9  2  0
  9 10  1  0
 10 11  2  0
 11 12  1  0
 12 13  2  0
 13 14  1  0
  1 15  1  0
 15 16  2  0
 16 17  1  0
 17 18  2  0
 18 19  1  0
 19 20  1  0
 20 21  1  0
 21 22  1  0
 22 23  1  0
 23 24  1  0
 24 25  1  0
 24 26  1  0
 27 24  1  6
 13  4  1  0
 27 15  1  0
 12  7  1  0
 27 18  1  0
M  END
>  <AAScore>  (1) 
4768.938654783991

>  <RootName>  (1) 
./4ZLY/04_DeltaGEst/trajectory_03/rank_00/lead_0173

$$$$
