confid_11
     RDKit          3D

 27 30  0  0  0  0  0  0  0  0999 V2000
   24.4800   26.1000   36.1300 N   0  0  0  0  0  0  0  0  0  0  0  0
   25.2500   26.2500   34.9900 C   0  0  0  0  0  0  0  0  0  0  0  0
   24.7400   25.7600   33.9900 O   0  0  0  0  0  0  0  0  0  0  0  0
   26.5900   26.8900   34.9600 C   0  0  0  0  0  0  0  0  0  0  0  0
   27.0600   27.2400   36.1600 N   0  0  0  0  0  0  0  0  0  0  0  0
   28.3000   27.7100   36.2400 N   0  0  0  0  0  0  0  0  0  0  0  0
   29.0500   27.9600   35.1500 C   0  0  0  0  0  0  0  0  0  0  0  0
   30.3400   28.4900   35.2600 C   0  0  0  0  0  0  0  0  0  0  0  0
   31.1100   28.8200   34.1400 C   0  0  0  0  0  0  0  0  0  0  0  0
   30.5200   28.6700   32.8800 C   0  0  0  0  0  0  0  0  0  0  0  0
   29.2900   28.0200   32.7700 C   0  0  0  0  0  0  0  0  0  0  0  0
   28.5200   27.7100   33.8900 C   0  0  0  0  0  0  0  0  0  0  0  0
   27.2700   27.0800   33.7600 C   0  0  0  0  0  0  0  0  0  0  0  0
   26.7500   26.8800   32.4900 N   0  0  0  0  0  0  0  0  0  0  0  0
   23.5224   25.0494   36.3567 C   0  0  0  0  0  0  0  0  0  0  0  0
   22.4671   25.2866   37.1802 N   0  0  0  0  0  0  0  0  0  0  0  0
   21.5386   24.3349   37.4551 C   0  0  0  0  0  0  0  0  0  0  0  0
   21.6404   23.0626   36.8869 C   0  0  0  0  0  0  0  0  0  0  0  0
   20.6342   22.1305   37.1492 O   0  0  0  0  0  0  0  0  0  0  0  0
   19.9442   21.4353   36.1155 C   0  0  0  0  0  0  0  0  0  0  0  0
   20.7972   20.3232   35.5134 C   0  0  0  0  0  0  0  0  0  0  0  0
   21.9137   20.8819   34.7155 N   0  0  0  0  0  0  0  0  0  0  0  0
   22.4009   19.8809   33.7361 C   0  0  0  0  0  0  0  0  0  0  0  0
   21.5613   19.9259   32.4603 C   0  0  0  0  0  0  0  0  0  0  0  0
   23.0066   21.3477   35.6015 C   0  0  0  0  0  0  0  0  0  0  0  0
   22.7506   22.7577   36.0767 C   0  0  0  0  0  0  0  0  0  0  0  0
   23.6939   23.7656   35.8118 C   0  0  0  0  0  0  0  0  0  0  0  0
  1  2  1  0
  2  3  2  0
  2  4  1  0
  4  5  2  0
  5  6  1  0
  6  7  2  0
  7  8  1  0
  8  9  2  0
  9 10  1  0
 10 11  2  0
 11 12  1  0
 12 13  2  0
 13 14  1  0
  1 15  1  0
 15 16  2  0
 16 17  1  0
 17 18  2  0
 18 19  1  0
 19 20  1  0
 20 21  1  0
 21 22  1  0
 22 23  1  0
 23 24  1  0
 22 25  1  0
 25 26  1  0
 26 27  2  0
 13  4  1  0
 27 15  1  0
 12  7  1  0
 26 18  1  0
M  END
>  <AAScore>  (1) 
596.3205686813684

>  <RootName>  (1) 
./4ZLY/04_DeltaGEst/trajectory_00/rank_01/lead_0425

$$$$
