confid_18
     RDKit          3D

 29 32  0  0  0  0  0  0  0  0999 V2000
   24.2000   26.2400   35.6900 N   0  0  0  0  0  0  0  0  0  0  0  0
   24.8500   26.2800   34.4800 C   0  0  0  0  0  0  0  0  0  0  0  0
   24.3100   25.7400   33.5400 O   0  0  0  0  0  0  0  0  0  0  0  0
   26.1800   26.9700   34.4700 C   0  0  0  0  0  0  0  0  0  0  0  0
   26.6500   27.6000   35.5500 N   0  0  0  0  0  0  0  0  0  0  0  0
   27.7900   28.2700   35.6200 N   0  0  0  0  0  0  0  0  0  0  0  0
   28.5400   28.3000   34.5100 C   0  0  0  0  0  0  0  0  0  0  0  0
   29.7700   28.9400   34.5600 C   0  0  0  0  0  0  0  0  0  0  0  0
   30.7000   28.8900   33.5000 C   0  0  0  0  0  0  0  0  0  0  0  0
   30.3700   28.1400   32.3700 C   0  0  0  0  0  0  0  0  0  0  0  0
   29.1200   27.5200   32.2800 C   0  0  0  0  0  0  0  0  0  0  0  0
   28.2100   27.6100   33.3300 C   0  0  0  0  0  0  0  0  0  0  0  0
   26.9700   26.9700   33.3100 C   0  0  0  0  0  0  0  0  0  0  0  0
   26.5300   26.2400   32.2200 N   0  0  0  0  0  0  0  0  0  0  0  0
   30.1371   29.6893   35.7337 N   0  0  0  0  0  0  0  0  0  0  0  0
   29.3714   30.8768   36.1277 C   0  0  0  0  0  0  0  0  0  0  0  0
   30.3063   32.0944   36.3101 C   0  0  0  0  0  0  0  0  0  0  0  0
   31.7369   31.7052   36.3713 N   0  0  0  0  0  0  0  0  0  0  0  0
   32.5848   32.8224   36.8314 C   0  0  0  0  0  0  0  0  0  0  0  0
   32.6117   33.9302   35.8064 C   0  0  0  0  0  0  0  0  0  0  0  0
   32.2420   35.2478   36.0295 C   0  0  0  0  0  0  0  0  0  0  0  0
   32.3161   35.8981   34.8120 C   0  0  0  0  0  0  0  0  0  0  0  0
   32.7457   34.9573   33.8956 C   0  0  0  0  0  0  0  0  0  0  0  0
   32.8892   35.2011   32.4236 C   0  0  0  0  0  0  0  0  0  0  0  0
   32.9478   33.7662   34.5047 N   0  0  0  0  0  0  0  0  0  0  0  0
   33.2994   32.5054   33.8479 C   0  0  0  0  0  0  0  0  0  0  0  0
   31.7401   35.8407   37.3076 C   0  0  0  0  0  0  0  0  0  0  0  0
   31.9157   30.5209   37.2306 C   0  0  0  0  0  0  0  0  0  0  0  0
   31.3152   29.3010   36.5224 C   0  0  0  0  0  0  0  0  0  0  0  0
  1  2  1  0
  2  3  2  0
  2  4  1  0
  4  5  2  0
  5  6  1  0
  6  7  2  0
  7  8  1  0
  8  9  2  0
  9 10  1  0
 10 11  2  0
 11 12  1  0
 12 13  2  0
 13 14  1  0
  8 15  1  0
 15 16  1  0
 16 17  1  0
 17 18  1  0
 18 19  1  0
 19 20  1  0
 20 21  2  0
 21 22  1  0
 22 23  2  0
 23 24  1  0
 23 25  1  0
 25 26  1  0
 21 27  1  0
 18 28  1  0
 28 29  1  0
 13  4  1  0
 29 15  1  0
 12  7  1  0
 25 20  1  0
M  END
>  <AAScore>  (1) 
-8.272798407559664

>  <RootName>  (1) 
./4ZLY/04_DeltaGEst/trajectory_04/rank_01/lead_0224

$$$$
