confid_19
     RDKit          3D

 27 30  0  0  0  0  0  0  0  0999 V2000
   24.5500   26.3900   36.2500 N   0  0  0  0  0  0  0  0  0  0  0  0
   25.6000   26.1300   35.4000 C   0  0  0  0  0  0  0  0  0  0  0  0
   25.4300   25.4300   34.4200 O   0  0  0  0  0  0  0  0  0  0  0  0
   26.9800   26.6300   35.7100 C   0  0  0  0  0  0  0  0  0  0  0  0
   27.3200   26.8200   36.9800 N   0  0  0  0  0  0  0  0  0  0  0  0
   28.4700   27.4000   37.3100 N   0  0  0  0  0  0  0  0  0  0  0  0
   29.4000   27.6300   36.3700 C   0  0  0  0  0  0  0  0  0  0  0  0
   30.6600   28.0500   36.8000 C   0  0  0  0  0  0  0  0  0  0  0  0
   31.5700   28.3600   35.7800 C   0  0  0  0  0  0  0  0  0  0  0  0
   31.3700   28.1000   34.4300 C   0  0  0  0  0  0  0  0  0  0  0  0
   30.1200   27.5900   34.0500 C   0  0  0  0  0  0  0  0  0  0  0  0
   29.1500   27.3400   35.0300 C   0  0  0  0  0  0  0  0  0  0  0  0
   27.8800   26.8900   34.6600 C   0  0  0  0  0  0  0  0  0  0  0  0
   27.4800   26.6100   33.3700 N   0  0  0  0  0  0  0  0  0  0  0  0
   30.9658   28.3065   38.1817 N   0  0  0  0  0  0  0  0  0  0  0  0
   30.2732   29.3910   38.8972 C   0  0  0  0  0  0  0  0  0  0  0  0
   29.8735   28.9296   40.3052 C   0  0  0  0  0  0  0  0  0  0  0  0
   31.0130   28.2068   40.9508 C   0  0  0  0  0  0  0  0  0  0  0  0
   31.1935   27.8676   42.5858 S   0  0  0  0  0  0  0  0  0  0  0  0
   32.6045   26.9744   42.3340 C   0  0  0  0  0  0  0  0  0  0  0  0
   32.9474   26.9348   41.0249 N   0  0  0  0  0  0  0  0  0  0  0  0
   32.0473   27.5992   40.2534 C   0  0  0  0  0  0  0  0  0  0  0  0
   32.1868   27.7296   38.7658 C   0  0  0  0  0  0  0  0  0  0  0  0
   33.4390   26.3817   43.4225 C   0  0  0  0  0  0  0  0  0  0  0  0
   34.2505   25.3859   42.9100 F   0  0  0  0  0  0  0  0  0  0  0  0
   34.2282   27.3677   43.9835 F   0  0  0  0  0  0  0  0  0  0  0  0
   32.6234   25.8394   44.3984 F   0  0  0  0  0  0  0  0  0  0  0  0
  1  2  1  0
  2  3  2  0
  2  4  1  0
  4  5  2  0
  5  6  1  0
  6  7  2  0
  7  8  1  0
  8  9  2  0
  9 10  1  0
 10 11  2  0
 11 12  1  0
 12 13  2  0
 13 14  1  0
  8 15  1  0
 15 16  1  0
 16 17  1  0
 17 18  1  0
 18 19  1  0
 19 20  1  0
 20 21  2  0
 21 22  1  0
 22 23  1  0
 20 24  1  0
 24 25  1  0
 24 26  1  0
 24 27  1  0
 13  4  1  0
 23 15  1  0
 12  7  1  0
 22 18  2  0
M  END
>  <AAScore>  (1) 
95.12232979024816

>  <RootName>  (1) 
./4ZLY/04_DeltaGEst/trajectory_01/rank_01/lead_0440

$$$$
