confid_0
     RDKit          3D

 27 30  0  0  0  0  0  0  0  0999 V2000
   24.4800   26.1000   36.1300 N   0  0  0  0  0  0  0  0  0  0  0  0
   25.2500   26.2500   34.9900 C   0  0  0  0  0  0  0  0  0  0  0  0
   24.7400   25.7600   33.9900 O   0  0  0  0  0  0  0  0  0  0  0  0
   26.5900   26.8900   34.9600 C   0  0  0  0  0  0  0  0  0  0  0  0
   27.0600   27.2400   36.1600 N   0  0  0  0  0  0  0  0  0  0  0  0
   28.3000   27.7100   36.2400 N   0  0  0  0  0  0  0  0  0  0  0  0
   29.0500   27.9600   35.1500 C   0  0  0  0  0  0  0  0  0  0  0  0
   30.3400   28.4900   35.2600 C   0  0  0  0  0  0  0  0  0  0  0  0
   31.1100   28.8200   34.1400 C   0  0  0  0  0  0  0  0  0  0  0  0
   30.5200   28.6700   32.8800 C   0  0  0  0  0  0  0  0  0  0  0  0
   29.2900   28.0200   32.7700 C   0  0  0  0  0  0  0  0  0  0  0  0
   28.5200   27.7100   33.8900 C   0  0  0  0  0  0  0  0  0  0  0  0
   27.2700   27.0800   33.7600 C   0  0  0  0  0  0  0  0  0  0  0  0
   26.7500   26.8800   32.4900 N   0  0  0  0  0  0  0  0  0  0  0  0
   23.0435   26.0548   36.1563 C   0  0  0  0  0  0  0  0  0  0  0  0
   22.3494   25.7588   37.2774 N   0  0  0  0  0  0  0  0  0  0  0  0
   21.0073   25.8408   37.0738 C   0  0  0  0  0  0  0  0  0  0  0  0
   20.0161   25.6527   38.1740 C   0  0  0  0  0  0  0  0  0  0  0  0
   18.6793   25.3393   37.6466 N   0  0  0  0  0  0  0  0  0  0  0  0
   17.7174   24.6608   38.5192 C   0  0  0  0  0  0  0  0  0  0  0  0
   18.2377   25.8240   36.3563 C   0  0  0  0  0  0  0  0  0  0  0  0
   17.0202   25.7171   36.0379 O   0  0  0  0  0  0  0  0  0  0  0  0
   19.1969   26.4979   35.3847 C   0  0  0  0  0  0  0  0  0  0  0  0
   18.9525   28.0152   35.4137 C   0  0  0  0  0  0  0  0  0  0  0  0
   20.6219   26.2226   35.7980 C   0  0  0  0  0  0  0  0  0  0  0  0
   22.0165   26.4841   34.8858 S   0  0  0  0  0  0  0  0  0  0  0  0
   18.9590   25.9542   33.9611 C   0  0  0  0  0  0  0  0  0  0  0  0
  1  2  1  0
  2  3  2  0
  2  4  1  0
  4  5  2  0
  5  6  1  0
  6  7  2  0
  7  8  1  0
  8  9  2  0
  9 10  1  0
 10 11  2  0
 11 12  1  0
 12 13  2  0
 13 14  1  0
  1 15  1  0
 15 16  2  0
 16 17  1  0
 17 18  1  0
 18 19  1  0
 19 20  1  0
 19 21  1  0
 21 22  2  0
 21 23  1  0
 23 24  1  0
 23 25  1  0
 25 26  1  0
 23 27  1  0
 13  4  1  0
 26 15  1  0
 12  7  1  0
 25 17  2  0
M  END
>  <AAScore>  (1) 
1385.0360902051066

>  <RootName>  (1) 
./4ZLY/04_DeltaGEst/trajectory_00/rank_01/lead_0063

$$$$
