confid_2
     RDKit          3D

 27 30  0  0  0  0  0  0  0  0999 V2000
   24.5500   26.3900   36.2500 N   0  0  0  0  0  0  0  0  0  0  0  0
   25.6000   26.1300   35.4000 C   0  0  0  0  0  0  0  0  0  0  0  0
   25.4300   25.4300   34.4200 O   0  0  0  0  0  0  0  0  0  0  0  0
   26.9800   26.6300   35.7100 C   0  0  0  0  0  0  0  0  0  0  0  0
   27.3200   26.8200   36.9800 N   0  0  0  0  0  0  0  0  0  0  0  0
   28.4700   27.4000   37.3100 N   0  0  0  0  0  0  0  0  0  0  0  0
   29.4000   27.6300   36.3700 C   0  0  0  0  0  0  0  0  0  0  0  0
   30.6600   28.0500   36.8000 C   0  0  0  0  0  0  0  0  0  0  0  0
   31.5700   28.3600   35.7800 C   0  0  0  0  0  0  0  0  0  0  0  0
   31.3700   28.1000   34.4300 C   0  0  0  0  0  0  0  0  0  0  0  0
   30.1200   27.5900   34.0500 C   0  0  0  0  0  0  0  0  0  0  0  0
   29.1500   27.3400   35.0300 C   0  0  0  0  0  0  0  0  0  0  0  0
   27.8800   26.8900   34.6600 C   0  0  0  0  0  0  0  0  0  0  0  0
   27.4800   26.6100   33.3700 N   0  0  0  0  0  0  0  0  0  0  0  0
   23.1627   26.2251   35.9086 C   0  0  0  0  0  0  0  0  0  0  0  0
   22.2799   25.8939   36.8868 N   0  0  0  0  0  0  0  0  0  0  0  0
   20.9531   25.7474   36.6419 C   0  0  0  0  0  0  0  0  0  0  0  0
   20.4401   25.9622   35.3599 C   0  0  0  0  0  0  0  0  0  0  0  0
   19.0641   25.8187   35.1684 O   0  0  0  0  0  0  0  0  0  0  0  0
   18.2329   26.8700   34.6815 C   0  0  0  0  0  0  0  0  0  0  0  0
   18.7447   27.4332   33.3584 C   0  0  0  0  0  0  0  0  0  0  0  0
   19.4546   26.3677   32.6169 N   0  0  0  0  0  0  0  0  0  0  0  0
   19.1653   26.4310   31.1672 C   0  0  0  0  0  0  0  0  0  0  0  0
   17.8437   25.7320   30.8559 C   0  0  0  0  0  0  0  0  0  0  0  0
   20.9126   26.4455   32.8530 C   0  0  0  0  0  0  0  0  0  0  0  0
   21.3254   26.3048   34.3099 C   0  0  0  0  0  0  0  0  0  0  0  0
   22.6909   26.4487   34.6044 C   0  0  0  0  0  0  0  0  0  0  0  0
  1  2  1  0
  2  3  2  0
  2  4  1  0
  4  5  2  0
  5  6  1  0
  6  7  2  0
  7  8  1  0
  8  9  2  0
  9 10  1  0
 10 11  2  0
 11 12  1  0
 12 13  2  0
 13 14  1  0
  1 15  1  0
 15 16  2  0
 16 17  1  0
 17 18  2  0
 18 19  1  0
 19 20  1  0
 20 21  1  0
 21 22  1  0
 22 23  1  0
 23 24  1  0
 22 25  1  0
 25 26  1  0
 26 27  2  0
 13  4  1  0
 27 15  1  0
 12  7  1  0
 26 18  1  0
M  END
>  <AAScore>  (1) 
413.4853399905665

>  <RootName>  (1) 
./4ZLY/04_DeltaGEst/trajectory_01/rank_00/lead_0046

$$$$
