confid_14
     RDKit          3D

 29 32  0  0  0  0  0  0  0  0999 V2000
   24.6900   26.1200   35.5300 N   0  0  0  0  0  0  0  0  0  0  0  0
   25.6600   25.6700   34.6600 C   0  0  0  0  0  0  0  0  0  0  0  0
   25.2400   25.0100   33.7200 O   0  0  0  0  0  0  0  0  0  0  0  0
   27.0300   26.2200   34.8800 C   0  0  0  0  0  0  0  0  0  0  0  0
   27.3500   26.7300   36.0700 N   0  0  0  0  0  0  0  0  0  0  0  0
   28.5700   27.1800   36.3300 N   0  0  0  0  0  0  0  0  0  0  0  0
   29.5300   27.1100   35.3900 C   0  0  0  0  0  0  0  0  0  0  0  0
   30.8300   27.5700   35.6500 C   0  0  0  0  0  0  0  0  0  0  0  0
   31.8500   27.5400   34.6900 C   0  0  0  0  0  0  0  0  0  0  0  0
   31.5100   27.1200   33.4000 C   0  0  0  0  0  0  0  0  0  0  0  0
   30.2200   26.6300   33.1100 C   0  0  0  0  0  0  0  0  0  0  0  0
   29.2400   26.6600   34.1000 C   0  0  0  0  0  0  0  0  0  0  0  0
   27.9300   26.2600   33.8100 C   0  0  0  0  0  0  0  0  0  0  0  0
   27.5200   25.7100   32.6100 N   0  0  0  0  0  0  0  0  0  0  0  0
   31.1791   28.0688   37.0033 C   0  0  0  0  0  0  0  0  0  0  0  0
   31.0768   27.2077   38.1061 C   0  0  0  0  0  0  0  0  0  0  0  0
   31.4081   27.6340   39.4028 C   0  0  0  0  0  0  0  0  0  0  0  0
   31.2111   26.6187   40.5221 C   0  0  0  0  0  0  0  0  0  0  0  0
   31.7836   26.9885   41.8272 N   0  0  0  0  0  0  0  0  0  0  0  0
   33.2459   27.0433   41.9649 C   0  0  0  0  0  0  0  0  0  0  0  0
   30.9497   27.7143   42.8051 C   0  0  0  0  0  0  0  0  0  0  0  0
   30.2547   28.9523   42.2149 C   0  0  0  0  0  0  0  0  0  0  0  0
   31.2470   30.0150   41.7430 C   0  0  0  0  0  0  0  0  0  0  0  0
   32.1964   29.4702   40.8344 O   0  0  0  0  0  0  0  0  0  0  0  0
   31.8386   28.9715   39.5829 C   0  0  0  0  0  0  0  0  0  0  0  0
   31.9479   29.8284   38.4826 C   0  0  0  0  0  0  0  0  0  0  0  0
   31.6183   29.3912   37.1885 C   0  0  0  0  0  0  0  0  0  0  0  0
   31.7032   30.2426   36.0738 O   0  0  0  0  0  0  0  0  0  0  0  0
   32.1318   31.5994   36.1229 C   0  0  0  0  0  0  0  0  0  0  0  0
  1  2  1  0
  2  3  2  0
  2  4  1  0
  4  5  2  0
  5  6  1  0
  6  7  2  0
  7  8  1  0
  8  9  2  0
  9 10  1  0
 10 11  2  0
 11 12  1  0
 12 13  2  0
 13 14  1  0
  8 15  1  0
 15 16  2  0
 16 17  1  0
 17 18  1  0
 18 19  1  0
 19 20  1  0
 19 21  1  0
 21 22  1  0
 22 23  1  0
 23 24  1  0
 24 25  1  0
 25 26  1  0
 26 27  2  0
 27 28  1  0
 28 29  1  0
 13  4  1  0
 27 15  1  0
 12  7  1  0
 25 17  2  0
M  END
>  <AAScore>  (1) 
2.8200055728029967

>  <RootName>  (1) 
./4ZLY/04_DeltaGEst/trajectory_02/rank_01/lead_0461

$$$$
