confid_11
     RDKit          3D

 26 29  0  0  0  0  0  0  0  0999 V2000
   24.6900   26.1200   35.5300 N   0  0  0  0  0  0  0  0  0  0  0  0
   25.6600   25.6700   34.6600 C   0  0  0  0  0  0  0  0  0  0  0  0
   25.2400   25.0100   33.7200 O   0  0  0  0  0  0  0  0  0  0  0  0
   27.0300   26.2200   34.8800 C   0  0  0  0  0  0  0  0  0  0  0  0
   27.3500   26.7300   36.0700 N   0  0  0  0  0  0  0  0  0  0  0  0
   28.5700   27.1800   36.3300 N   0  0  0  0  0  0  0  0  0  0  0  0
   29.5300   27.1100   35.3900 C   0  0  0  0  0  0  0  0  0  0  0  0
   30.8300   27.5700   35.6500 C   0  0  0  0  0  0  0  0  0  0  0  0
   31.8500   27.5400   34.6900 C   0  0  0  0  0  0  0  0  0  0  0  0
   31.5100   27.1200   33.4000 C   0  0  0  0  0  0  0  0  0  0  0  0
   30.2200   26.6300   33.1100 C   0  0  0  0  0  0  0  0  0  0  0  0
   29.2400   26.6600   34.1000 C   0  0  0  0  0  0  0  0  0  0  0  0
   27.9300   26.2600   33.8100 C   0  0  0  0  0  0  0  0  0  0  0  0
   27.5200   25.7100   32.6100 N   0  0  0  0  0  0  0  0  0  0  0  0
   23.6104   25.2898   35.9932 C   0  0  0  0  0  0  0  0  0  0  0  0
   23.4893   24.0016   35.5903 N   0  0  0  0  0  0  0  0  0  0  0  0
   22.5470   23.1042   36.0062 C   0  0  0  0  0  0  0  0  0  0  0  0
   22.5908   21.9504   35.5048 O   0  0  0  0  0  0  0  0  0  0  0  0
   21.5318   23.4003   36.9652 C   0  0  0  0  0  0  0  0  0  0  0  0
   21.3906   24.6735   37.5491 C   0  0  0  0  0  0  0  0  0  0  0  0
   22.5056   25.8659   37.1255 S   0  0  0  0  0  0  0  0  0  0  0  0
   20.3743   24.9739   38.6158 C   0  0  0  0  0  0  0  0  0  0  0  0
   19.3047   23.8764   38.7501 C   0  0  0  0  0  0  0  0  0  0  0  0
   19.8568   22.5183   38.5970 N   0  0  0  0  0  0  0  0  0  0  0  0
   20.4848   22.3446   37.2726 C   0  0  0  0  0  0  0  0  0  0  0  0
   20.7625   22.1466   39.6980 C   0  0  0  0  0  0  0  0  0  0  0  0
  1  2  1  0
  2  3  2  0
  2  4  1  0
  4  5  2  0
  5  6  1  0
  6  7  2  0
  7  8  1  0
  8  9  2  0
  9 10  1  0
 10 11  2  0
 11 12  1  0
 12 13  2  0
 13 14  1  0
  1 15  1  0
 15 16  2  0
 16 17  1  0
 17 18  2  0
 17 19  1  0
 19 20  2  0
 20 21  1  0
 20 22  1  0
 22 23  1  0
 23 24  1  0
 24 25  1  0
 24 26  1  0
 13  4  1  0
 21 15  1  0
 12  7  1  0
 25 19  1  0
M  END
>  <AAScore>  (1) 
270.5784776069591

>  <RootName>  (1) 
./4ZLY/04_DeltaGEst/trajectory_02/rank_00/lead_0097

$$$$
