confid_14
     RDKit          3D

 27 30  0  0  0  0  0  0  0  0999 V2000
   24.6900   26.1200   35.5300 N   0  0  0  0  0  0  0  0  0  0  0  0
   25.6600   25.6700   34.6600 C   0  0  0  0  0  0  0  0  0  0  0  0
   25.2400   25.0100   33.7200 O   0  0  0  0  0  0  0  0  0  0  0  0
   27.0300   26.2200   34.8800 C   0  0  0  0  0  0  0  0  0  0  0  0
   27.3500   26.7300   36.0700 N   0  0  0  0  0  0  0  0  0  0  0  0
   28.5700   27.1800   36.3300 N   0  0  0  0  0  0  0  0  0  0  0  0
   29.5300   27.1100   35.3900 C   0  0  0  0  0  0  0  0  0  0  0  0
   30.8300   27.5700   35.6500 C   0  0  0  0  0  0  0  0  0  0  0  0
   31.8500   27.5400   34.6900 C   0  0  0  0  0  0  0  0  0  0  0  0
   31.5100   27.1200   33.4000 C   0  0  0  0  0  0  0  0  0  0  0  0
   30.2200   26.6300   33.1100 C   0  0  0  0  0  0  0  0  0  0  0  0
   29.2400   26.6600   34.1000 C   0  0  0  0  0  0  0  0  0  0  0  0
   27.9300   26.2600   33.8100 C   0  0  0  0  0  0  0  0  0  0  0  0
   27.5200   25.7100   32.6100 N   0  0  0  0  0  0  0  0  0  0  0  0
   23.2941   26.2601   35.1997 C   0  0  0  0  0  0  0  0  0  0  0  0
   22.3645   26.0473   36.1660 N   0  0  0  0  0  0  0  0  0  0  0  0
   21.0329   26.1514   35.9250 C   0  0  0  0  0  0  0  0  0  0  0  0
   20.5578   26.4919   34.6477 C   0  0  0  0  0  0  0  0  0  0  0  0
   19.0542   26.5698   34.4410 C   0  0  0  0  0  0  0  0  0  0  0  0
   18.6281   27.6904   33.4746 C   0  0  0  0  0  0  0  0  0  0  0  0
   18.6282   27.2541   32.0595 N   0  0  0  0  0  0  0  0  0  0  0  0
   18.4059   28.4066   31.1712 C   0  0  0  0  0  0  0  0  0  0  0  0
   19.8264   26.4852   31.6514 C   0  0  0  0  0  0  0  0  0  0  0  0
   21.1020   27.0358   32.2244 C   0  0  0  0  0  0  0  0  0  0  0  0
   21.8391   27.7580   31.4998 O   0  0  0  0  0  0  0  0  0  0  0  0
   21.5054   26.7238   33.6166 C   0  0  0  0  0  0  0  0  0  0  0  0
   22.8744   26.6364   33.9146 C   0  0  0  0  0  0  0  0  0  0  0  0
  1  2  1  0
  2  3  2  0
  2  4  1  0
  4  5  2  0
  5  6  1  0
  6  7  2  0
  7  8  1  0
  8  9  2  0
  9 10  1  0
 10 11  2  0
 11 12  1  0
 12 13  2  0
 13 14  1  0
  1 15  1  0
 15 16  2  0
 16 17  1  0
 17 18  2  0
 18 19  1  0
 19 20  1  0
 20 21  1  0
 21 22  1  0
 21 23  1  0
 23 24  1  0
 24 25  2  0
 24 26  1  0
 26 27  2  0
 13  4  1  0
 27 15  1  0
 12  7  1  0
 26 18  1  0
M  END
>  <AAScore>  (1) 
397.9612930533576

>  <RootName>  (1) 
./4ZLY/04_DeltaGEst/trajectory_02/rank_00/lead_0130

$$$$
