confid_14
     RDKit          3D

 30 33  0  0  0  0  0  0  0  0999 V2000
   24.6900   26.1200   35.5300 N   0  0  0  0  0  0  0  0  0  0  0  0
   25.6600   25.6700   34.6600 C   0  0  0  0  0  0  0  0  0  0  0  0
   25.2400   25.0100   33.7200 O   0  0  0  0  0  0  0  0  0  0  0  0
   27.0300   26.2200   34.8800 C   0  0  0  0  0  0  0  0  0  0  0  0
   27.3500   26.7300   36.0700 N   0  0  0  0  0  0  0  0  0  0  0  0
   28.5700   27.1800   36.3300 N   0  0  0  0  0  0  0  0  0  0  0  0
   29.5300   27.1100   35.3900 C   0  0  0  0  0  0  0  0  0  0  0  0
   30.8300   27.5700   35.6500 C   0  0  0  0  0  0  0  0  0  0  0  0
   31.8500   27.5400   34.6900 C   0  0  0  0  0  0  0  0  0  0  0  0
   31.5100   27.1200   33.4000 C   0  0  0  0  0  0  0  0  0  0  0  0
   30.2200   26.6300   33.1100 C   0  0  0  0  0  0  0  0  0  0  0  0
   29.2400   26.6600   34.1000 C   0  0  0  0  0  0  0  0  0  0  0  0
   27.9300   26.2600   33.8100 C   0  0  0  0  0  0  0  0  0  0  0  0
   27.5200   25.7100   32.6100 N   0  0  0  0  0  0  0  0  0  0  0  0
   31.1436   28.0760   36.9565 N   0  0  0  0  0  0  0  0  0  0  0  0
   32.0250   27.2978   37.8377 C   0  0  0  0  0  0  0  0  0  0  0  0
   32.2393   28.0115   39.1750 C   0  0  0  0  0  0  0  0  0  0  0  0
   30.9521   28.5115   39.6803 N   0  0  0  0  0  0  0  0  0  0  0  0
   30.5363   28.2868   41.0405 C   0  0  0  0  0  0  0  0  0  0  0  0
   29.8840   29.1824   41.6446 O   0  0  0  0  0  0  0  0  0  0  0  0
   30.8734   27.0079   41.7614 C   0  0  0  0  0  0  0  0  0  0  0  0
   29.7329   26.5581   42.6366 C   0  0  0  0  0  0  0  0  0  0  0  0
   29.7208   26.8695   44.0055 C   0  0  0  0  0  0  0  0  0  0  0  0
   28.6437   26.4803   44.8059 C   0  0  0  0  0  0  0  0  0  0  0  0
   27.5717   25.7788   44.2482 C   0  0  0  0  0  0  0  0  0  0  0  0
   27.5724   25.4559   42.8830 C   0  0  0  0  0  0  0  0  0  0  0  0
   26.3984   24.7456   42.2775 C   0  0  0  0  0  0  0  0  0  0  0  0
   28.6459   25.8667   42.0765 C   0  0  0  0  0  0  0  0  0  0  0  0
   30.0869   29.3138   38.8011 C   0  0  0  0  0  0  0  0  0  0  0  0
   30.6403   29.3908   37.3725 C   0  0  0  0  0  0  0  0  0  0  0  0
  1  2  1  0
  2  3  2  0
  2  4  1  0
  4  5  2  0
  5  6  1  0
  6  7  2  0
  7  8  1  0
  8  9  2  0
  9 10  1  0
 10 11  2  0
 11 12  1  0
 12 13  2  0
 13 14  1  0
  8 15  1  0
 15 16  1  0
 16 17  1  0
 17 18  1  0
 18 19  1  0
 19 20  2  0
 19 21  1  0
 21 22  1  0
 22 23  2  0
 23 24  1  0
 24 25  2  0
 25 26  1  0
 26 27  1  0
 26 28  2  0
 18 29  1  0
 29 30  1  0
 13  4  1  0
 30 15  1  0
 12  7  1  0
 28 22  1  0
M  END
>  <AAScore>  (1) 
47.60500163596444

>  <RootName>  (1) 
./4ZLY/04_DeltaGEst/trajectory_02/rank_01/lead_0409

$$$$
