confid_1
     RDKit          3D

 25 28  0  0  0  0  0  0  0  0999 V2000
   24.4800   26.1000   36.1300 N   0  0  0  0  0  0  0  0  0  0  0  0
   25.2500   26.2500   34.9900 C   0  0  0  0  0  0  0  0  0  0  0  0
   24.7400   25.7600   33.9900 O   0  0  0  0  0  0  0  0  0  0  0  0
   26.5900   26.8900   34.9600 C   0  0  0  0  0  0  0  0  0  0  0  0
   27.0600   27.2400   36.1600 N   0  0  0  0  0  0  0  0  0  0  0  0
   28.3000   27.7100   36.2400 N   0  0  0  0  0  0  0  0  0  0  0  0
   29.0500   27.9600   35.1500 C   0  0  0  0  0  0  0  0  0  0  0  0
   30.3400   28.4900   35.2600 C   0  0  0  0  0  0  0  0  0  0  0  0
   31.1100   28.8200   34.1400 C   0  0  0  0  0  0  0  0  0  0  0  0
   30.5200   28.6700   32.8800 C   0  0  0  0  0  0  0  0  0  0  0  0
   29.2900   28.0200   32.7700 C   0  0  0  0  0  0  0  0  0  0  0  0
   28.5200   27.7100   33.8900 C   0  0  0  0  0  0  0  0  0  0  0  0
   27.2700   27.0800   33.7600 C   0  0  0  0  0  0  0  0  0  0  0  0
   26.7500   26.8800   32.4900 N   0  0  0  0  0  0  0  0  0  0  0  0
   23.0433   26.0609   36.1545 C   0  0  0  0  0  0  0  0  0  0  0  0
   22.1809   26.5104   35.1542 C   0  0  0  0  0  0  0  0  0  0  0  0
   20.8331   26.3837   35.5140 C   0  0  0  0  0  0  0  0  0  0  0  0
   19.6810   26.7183   34.6166 C   0  0  0  0  0  0  0  0  0  0  0  0
   18.4477   26.9184   35.3841 N   0  0  0  0  0  0  0  0  0  0  0  0
   18.2231   26.3088   36.6689 C   0  0  0  0  0  0  0  0  0  0  0  0
   17.0890   26.3996   37.2099 O   0  0  0  0  0  0  0  0  0  0  0  0
   19.3100   25.5439   37.3745 C   0  0  0  0  0  0  0  0  0  0  0  0
   20.6447   25.8491   36.7787 C   0  0  0  0  0  0  0  0  0  0  0  0
   22.1414   25.5248   37.4732 S   0  0  0  0  0  0  0  0  0  0  0  0
   17.4264   27.5735   34.7887 F   0  0  0  0  0  0  0  0  0  0  0  0
  1  2  1  0
  2  3  2  0
  2  4  1  0
  4  5  2  0
  5  6  1  0
  6  7  2  0
  7  8  1  0
  8  9  2  0
  9 10  1  0
 10 11  2  0
 11 12  1  0
 12 13  2  0
 13 14  1  0
  1 15  1  0
 15 16  2  0
 16 17  1  0
 17 18  1  0
 18 19  1  0
 19 20  1  0
 20 21  2  0
 20 22  1  0
 22 23  1  0
 23 24  1  0
 19 25  1  0
 13  4  1  0
 24 15  1  0
 12  7  1  0
 23 17  2  0
M  END
>  <AAScore>  (1) 
280.03160227856523

>  <RootName>  (1) 
./4ZLY/04_DeltaGEst/trajectory_00/rank_00/lead_0090

$$$$
