confid_7
     RDKit          3D

 28 31  0  0  0  0  0  0  0  0999 V2000
   24.2000   26.2400   35.6900 N   0  0  0  0  0  0  0  0  0  0  0  0
   24.8500   26.2800   34.4800 C   0  0  0  0  0  0  0  0  0  0  0  0
   24.3100   25.7400   33.5400 O   0  0  0  0  0  0  0  0  0  0  0  0
   26.1800   26.9700   34.4700 C   0  0  0  0  0  0  0  0  0  0  0  0
   26.6500   27.6000   35.5500 N   0  0  0  0  0  0  0  0  0  0  0  0
   27.7900   28.2700   35.6200 N   0  0  0  0  0  0  0  0  0  0  0  0
   28.5400   28.3000   34.5100 C   0  0  0  0  0  0  0  0  0  0  0  0
   29.7700   28.9400   34.5600 C   0  0  0  0  0  0  0  0  0  0  0  0
   30.7000   28.8900   33.5000 C   0  0  0  0  0  0  0  0  0  0  0  0
   30.3700   28.1400   32.3700 C   0  0  0  0  0  0  0  0  0  0  0  0
   29.1200   27.5200   32.2800 C   0  0  0  0  0  0  0  0  0  0  0  0
   28.2100   27.6100   33.3300 C   0  0  0  0  0  0  0  0  0  0  0  0
   26.9700   26.9700   33.3100 C   0  0  0  0  0  0  0  0  0  0  0  0
   26.5300   26.2400   32.2200 N   0  0  0  0  0  0  0  0  0  0  0  0
   30.1622   29.6154   35.7640 N   0  0  0  0  0  0  0  0  0  0  0  0
   30.9002   28.8469   36.7825 C   0  0  0  0  0  0  0  0  0  0  0  0
   30.5545   29.3325   38.1955 C   0  0  0  0  0  0  0  0  0  0  0  0
   30.6358   30.8217   38.2301 C   0  0  0  0  0  0  0  0  0  0  0  0
   30.8707   31.6715   39.2857 C   0  0  0  0  0  0  0  0  0  0  0  0
   30.8497   32.9420   38.8390 N   0  0  0  0  0  0  0  0  0  0  0  0
   30.5776   32.9332   37.5361 N   0  0  0  0  0  0  0  0  0  0  0  0
   30.5930   34.1685   36.7128 C   0  0  0  0  0  0  0  0  0  0  0  0
   31.9364   34.2684   35.9667 C   0  0  0  0  0  0  0  0  0  0  0  0
   29.4231   34.1908   35.7043 C   0  0  0  0  0  0  0  0  0  0  0  0
   30.4500   35.4088   37.6285 C   0  0  0  0  0  0  0  0  0  0  0  0
   30.4444   31.6360   37.1430 C   0  0  0  0  0  0  0  0  0  0  0  0
   30.1452   31.0904   35.7714 C   0  0  0  0  0  0  0  0  0  0  0  0
   31.1451   31.2836   40.7009 C   0  0  0  0  0  0  0  0  0  0  0  0
  1  2  1  0
  2  3  2  0
  2  4  1  0
  4  5  2  0
  5  6  1  0
  6  7  2  0
  7  8  1  0
  8  9  2  0
  9 10  1  0
 10 11  2  0
 11 12  1  0
 12 13  2  0
 13 14  1  0
  8 15  1  0
 15 16  1  0
 16 17  1  0
 17 18  1  0
 18 19  1  0
 19 20  2  0
 20 21  1  0
 21 22  1  0
 22 23  1  0
 22 24  1  0
 22 25  1  0
 21 26  1  0
 26 27  1  0
 19 28  1  0
 13  4  1  0
 27 15  1  0
 12  7  1  0
 26 18  2  0
M  END
>  <AAScore>  (1) 
-0.8892397965279594

>  <RootName>  (1) 
./4ZLY/04_DeltaGEst/trajectory_04/rank_01/lead_0127

$$$$
