confid_12
     RDKit          3D

 30 33  0  0  0  0  0  0  0  0999 V2000
   24.5700   26.8800   35.5900 N   0  0  0  0  0  0  0  0  0  0  0  0
   25.5000   26.4000   34.6900 C   0  0  0  0  0  0  0  0  0  0  0  0
   25.1700   25.5200   33.9100 O   0  0  0  0  0  0  0  0  0  0  0  0
   26.8400   27.0200   34.7400 C   0  0  0  0  0  0  0  0  0  0  0  0
   27.3800   27.2800   35.9400 N   0  0  0  0  0  0  0  0  0  0  0  0
   28.6200   27.7400   36.0300 N   0  0  0  0  0  0  0  0  0  0  0  0
   29.3800   28.0000   34.9600 C   0  0  0  0  0  0  0  0  0  0  0  0
   30.6700   28.5000   35.1300 C   0  0  0  0  0  0  0  0  0  0  0  0
   31.5400   28.6100   34.0300 C   0  0  0  0  0  0  0  0  0  0  0  0
   31.0900   28.2200   32.7700 C   0  0  0  0  0  0  0  0  0  0  0  0
   29.8000   27.7000   32.6000 C   0  0  0  0  0  0  0  0  0  0  0  0
   28.9600   27.5500   33.7100 C   0  0  0  0  0  0  0  0  0  0  0  0
   27.6600   27.0300   33.5900 C   0  0  0  0  0  0  0  0  0  0  0  0
   27.1600   26.7400   32.3400 N   0  0  0  0  0  0  0  0  0  0  0  0
   33.1673   29.2477   34.2356 S   0  0  0  0  0  6  0  0  0  0  0  0
   33.6611   28.9305   35.6199 O   0  0  0  0  0  0  0  0  0  0  0  0
   34.0824   28.5978   33.2356 O   0  0  0  0  0  0  0  0  0  0  0  0
   33.1293   31.0206   33.9895 C   0  0  0  0  0  0  0  0  0  0  0  0
   34.4802   31.6908   34.3176 C   0  0  2  0  0  0  0  0  0  0  0  0
   34.3229   33.2221   34.3511 C   0  0  0  0  0  0  0  0  0  0  0  0
   35.6115   33.9064   34.8450 C   0  0  0  0  0  0  0  0  0  0  0  0
   36.9178   33.1966   34.3520 C   0  0  2  0  0  0  0  0  0  0  0  0
   38.1028   34.0723   34.1368 N   0  0  0  0  0  0  0  0  0  0  0  0
   38.3869   35.0112   35.2326 C   0  0  0  0  0  0  0  0  0  0  0  0
   38.1939   36.2220   34.3354 C   0  0  0  0  0  0  0  0  0  0  0  0
   39.3572   36.9429   34.1258 F   0  0  0  0  0  0  0  0  0  0  0  0
   37.1070   37.0060   34.6822 F   0  0  0  0  0  0  0  0  0  0  0  0
   37.8966   35.2180   33.2358 C   0  0  0  0  0  0  0  0  0  0  0  0
   36.6638   32.3553   33.0876 C   0  0  0  0  0  0  0  0  0  0  0  0
   35.5924   31.2721   33.3175 C   0  0  0  0  0  0  0  0  0  0  0  0
  1  2  1  0
  2  3  2  0
  2  4  1  0
  4  5  2  0
  5  6  1  0
  6  7  2  0
  7  8  1  0
  8  9  2  0
  9 10  1  0
 10 11  2  0
 11 12  1  0
 12 13  2  0
 13 14  1  0
  9 15  1  0
 15 16  2  0
 15 17  2  0
 15 18  1  0
 19 18  1  6
 19 20  1  0
 20 21  1  0
 21 22  1  0
 22 23  1  6
 23 24  1  0
 24 25  1  0
 25 26  1  0
 25 27  1  0
 25 28  1  0
 22 29  1  0
 29 30  1  0
 13  4  1  0
 30 19  1  0
 12  7  1  0
 28 23  1  0
M  END
>  <AAScore>  (1) 
-5.50354023850479

>  <RootName>  (1) 
./4ZLY/04_DeltaGEst/trajectory_05/rank_01/lead_0495

$$$$
