confid_16
     RDKit          3D

 28 31  0  0  0  0  0  0  0  0999 V2000
   24.5700   26.8800   35.5900 N   0  0  0  0  0  0  0  0  0  0  0  0
   25.5000   26.4000   34.6900 C   0  0  0  0  0  0  0  0  0  0  0  0
   25.1700   25.5200   33.9100 O   0  0  0  0  0  0  0  0  0  0  0  0
   26.8400   27.0200   34.7400 C   0  0  0  0  0  0  0  0  0  0  0  0
   27.3800   27.2800   35.9400 N   0  0  0  0  0  0  0  0  0  0  0  0
   28.6200   27.7400   36.0300 N   0  0  0  0  0  0  0  0  0  0  0  0
   29.3800   28.0000   34.9600 C   0  0  0  0  0  0  0  0  0  0  0  0
   30.6700   28.5000   35.1300 C   0  0  0  0  0  0  0  0  0  0  0  0
   31.5400   28.6100   34.0300 C   0  0  0  0  0  0  0  0  0  0  0  0
   31.0900   28.2200   32.7700 C   0  0  0  0  0  0  0  0  0  0  0  0
   29.8000   27.7000   32.6000 C   0  0  0  0  0  0  0  0  0  0  0  0
   28.9600   27.5500   33.7100 C   0  0  0  0  0  0  0  0  0  0  0  0
   27.6600   27.0300   33.5900 C   0  0  0  0  0  0  0  0  0  0  0  0
   27.1600   26.7400   32.3400 N   0  0  0  0  0  0  0  0  0  0  0  0
   23.1475   26.7327   35.4399 C   0  0  0  0  0  0  0  0  0  0  0  0
   22.3721   26.6419   36.5542 N   0  0  0  0  0  0  0  0  0  0  0  0
   21.0195   26.5331   36.4887 C   0  0  0  0  0  0  0  0  0  0  0  0
   20.3741   26.5114   35.2458 C   0  0  0  0  0  0  0  0  0  0  0  0
   18.8719   26.4464   35.1572 C   0  0  0  0  0  0  0  0  0  0  0  0
   18.4416   25.7252   33.9470 N   0  0  0  0  0  0  0  0  0  0  0  0
   19.1973   25.9089   32.7257 C   0  0  0  0  0  0  0  0  0  0  0  0
   18.7911   25.4303   31.6336 O   0  0  0  0  0  0  0  0  0  0  0  0
   20.4675   26.7096   32.7342 C   0  0  0  0  0  0  0  0  0  0  0  0
   21.1429   26.6315   34.0765 C   0  0  0  0  0  0  0  0  0  0  0  0
   22.5348   26.7563   34.1755 C   0  0  0  0  0  0  0  0  0  0  0  0
   17.2151   24.9010   34.0010 C   0  0  0  0  0  0  0  0  0  0  0  0
   16.1070   25.4860   33.1175 C   0  0  0  0  0  0  0  0  0  0  0  0
   17.5122   23.4389   33.6493 C   0  0  0  0  0  0  0  0  0  0  0  0
  1  2  1  0
  2  3  2  0
  2  4  1  0
  4  5  2  0
  5  6  1  0
  6  7  2  0
  7  8  1  0
  8  9  2  0
  9 10  1  0
 10 11  2  0
 11 12  1  0
 12 13  2  0
 13 14  1  0
  1 15  1  0
 15 16  2  0
 16 17  1  0
 17 18  2  0
 18 19  1  0
 19 20  1  0
 20 21  1  0
 21 22  2  0
 21 23  1  0
 23 24  1  0
 24 25  2  0
 20 26  1  0
 26 27  1  0
 26 28  1  0
 13  4  1  0
 25 15  1  0
 12  7  1  0
 24 18  1  0
M  END
>  <AAScore>  (1) 
367.4713783130079

>  <RootName>  (1) 
./4ZLY/04_DeltaGEst/trajectory_05/rank_00/lead_0376

$$$$
