confid_1
     RDKit          3D

 27 29  0  0  0  0  0  0  0  0999 V2000
   24.4800   26.1000   36.1300 N   0  0  0  0  0  0  0  0  0  0  0  0
   25.2500   26.2500   34.9900 C   0  0  0  0  0  0  0  0  0  0  0  0
   24.7400   25.7600   33.9900 O   0  0  0  0  0  0  0  0  0  0  0  0
   26.5900   26.8900   34.9600 C   0  0  0  0  0  0  0  0  0  0  0  0
   27.0600   27.2400   36.1600 N   0  0  0  0  0  0  0  0  0  0  0  0
   28.3000   27.7100   36.2400 N   0  0  0  0  0  0  0  0  0  0  0  0
   29.0500   27.9600   35.1500 C   0  0  0  0  0  0  0  0  0  0  0  0
   30.3400   28.4900   35.2600 C   0  0  0  0  0  0  0  0  0  0  0  0
   31.1100   28.8200   34.1400 C   0  0  0  0  0  0  0  0  0  0  0  0
   30.5200   28.6700   32.8800 C   0  0  0  0  0  0  0  0  0  0  0  0
   29.2900   28.0200   32.7700 C   0  0  0  0  0  0  0  0  0  0  0  0
   28.5200   27.7100   33.8900 C   0  0  0  0  0  0  0  0  0  0  0  0
   27.2700   27.0800   33.7600 C   0  0  0  0  0  0  0  0  0  0  0  0
   26.7500   26.8800   32.4900 N   0  0  0  0  0  0  0  0  0  0  0  0
   23.0402   26.0363   36.1500 C   0  0  0  0  0  0  0  0  0  0  0  0
   22.2607   26.7137   35.1928 C   0  0  0  0  0  0  0  0  0  0  0  0
   20.8590   26.6540   35.2422 C   0  0  0  0  0  0  0  0  0  0  0  0
   20.0689   27.3428   34.2558 N   0  0  0  0  0  0  0  0  0  0  0  0
   20.1849   28.7987   34.1374 C   0  0  0  0  0  0  0  0  0  0  0  0
   19.0269   26.6596   33.5276 C   0  0  0  0  0  0  0  0  0  0  0  0
   18.0421   27.3140   33.0858 O   0  0  0  0  0  0  0  0  0  0  0  0
   19.0808   25.1758   33.2812 C   0  0  0  0  0  0  0  0  0  0  0  0
   18.9492   24.8913   31.8484 C   0  0  0  0  0  0  0  0  0  0  0  0
   18.8456   24.6664   30.7180 N   0  0  0  0  0  0  0  0  0  0  0  0
   20.2355   25.9242   36.2659 C   0  0  0  0  0  0  0  0  0  0  0  0
   21.0032   25.2691   37.2307 C   0  0  0  0  0  0  0  0  0  0  0  0
   22.3978   25.3304   37.1781 C   0  0  0  0  0  0  0  0  0  0  0  0
  1  2  1  0
  2  3  2  0
  2  4  1  0
  4  5  2  0
  5  6  1  0
  6  7  2  0
  7  8  1  0
  8  9  2  0
  9 10  1  0
 10 11  2  0
 11 12  1  0
 12 13  2  0
 13 14  1  0
  1 15  1  0
 15 16  2  0
 16 17  1  0
 17 18  1  0
 18 19  1  0
 18 20  1  0
 20 21  2  0
 20 22  1  0
 22 23  1  0
 23 24  3  0
 17 25  2  0
 25 26  1  0
 26 27  2  0
 13  4  1  0
 27 15  1  0
 12  7  1  0
M  END
>  <AAScore>  (1) 
157.44210658030187

>  <RootName>  (1) 
./4ZLY/04_DeltaGEst/trajectory_00/rank_00/lead_0048

$$$$
