confid_2
     RDKit          3D

 26 29  0  0  0  0  0  0  0  0999 V2000
   24.5700   26.8800   35.5900 N   0  0  0  0  0  0  0  0  0  0  0  0
   25.5000   26.4000   34.6900 C   0  0  0  0  0  0  0  0  0  0  0  0
   25.1700   25.5200   33.9100 O   0  0  0  0  0  0  0  0  0  0  0  0
   26.8400   27.0200   34.7400 C   0  0  0  0  0  0  0  0  0  0  0  0
   27.3800   27.2800   35.9400 N   0  0  0  0  0  0  0  0  0  0  0  0
   28.6200   27.7400   36.0300 N   0  0  0  0  0  0  0  0  0  0  0  0
   29.3800   28.0000   34.9600 C   0  0  0  0  0  0  0  0  0  0  0  0
   30.6700   28.5000   35.1300 C   0  0  0  0  0  0  0  0  0  0  0  0
   31.5400   28.6100   34.0300 C   0  0  0  0  0  0  0  0  0  0  0  0
   31.0900   28.2200   32.7700 C   0  0  0  0  0  0  0  0  0  0  0  0
   29.8000   27.7000   32.6000 C   0  0  0  0  0  0  0  0  0  0  0  0
   28.9600   27.5500   33.7100 C   0  0  0  0  0  0  0  0  0  0  0  0
   27.6600   27.0300   33.5900 C   0  0  0  0  0  0  0  0  0  0  0  0
   27.1600   26.7400   32.3400 N   0  0  0  0  0  0  0  0  0  0  0  0
   33.1946   29.2068   34.2686 S   0  0  0  0  0  6  0  0  0  0  0  0
   33.5288   29.0225   35.7226 O   0  0  0  0  0  0  0  0  0  0  0  0
   34.1238   28.3168   33.4922 O   0  0  0  0  0  0  0  0  0  0  0  0
   33.6011   30.9378   33.8793 C   0  0  2  0  0  0  0  0  0  0  0  0
   32.5425   32.0483   34.0694 C   0  0  0  0  0  0  0  0  0  0  0  0
   33.0896   33.2380   34.8779 C   0  0  0  0  0  0  0  0  0  0  0  0
   31.1396   31.6610   34.5482 C   0  0  0  0  0  0  0  0  0  0  0  0
   32.5167   32.3626   32.6900 O   0  0  0  0  0  0  0  0  0  0  0  0
   33.5148   31.4038   32.4342 C   0  0  0  0  0  0  0  0  0  0  0  0
   34.7511   32.0095   31.7836 C   0  0  0  0  0  0  0  0  0  0  0  0
   34.4572   31.1872   30.5309 C   0  0  0  0  0  0  0  0  0  0  0  0
   33.2688   30.5188   31.2227 C   0  0  0  0  0  0  0  0  0  0  0  0
  1  2  1  0
  2  3  2  0
  2  4  1  0
  4  5  2  0
  5  6  1  0
  6  7  2  0
  7  8  1  0
  8  9  2  0
  9 10  1  0
 10 11  2  0
 11 12  1  0
 12 13  2  0
 13 14  1  0
  9 15  1  0
 15 16  2  0
 15 17  2  0
 18 15  1  6
 18 19  1  0
 19 20  1  0
 19 21  1  0
 19 22  1  0
 22 23  1  0
 23 24  1  0
 24 25  1  0
 25 26  1  0
 13  4  1  0
 23 18  1  0
 12  7  1  0
 26 23  1  0
M  END
>  <AAScore>  (1) 
-6.17376181677018

>  <RootName>  (1) 
./4ZLY/04_DeltaGEst/trajectory_05/rank_01/lead_0200

$$$$
