confid_18
     RDKit          3D

 25 27  0  0  0  0  0  0  0  0999 V2000
   24.4800   26.1000   36.1300 N   0  0  0  0  0  0  0  0  0  0  0  0
   25.2500   26.2500   34.9900 C   0  0  0  0  0  0  0  0  0  0  0  0
   24.7400   25.7600   33.9900 O   0  0  0  0  0  0  0  0  0  0  0  0
   26.5900   26.8900   34.9600 C   0  0  0  0  0  0  0  0  0  0  0  0
   27.0600   27.2400   36.1600 N   0  0  0  0  0  0  0  0  0  0  0  0
   28.3000   27.7100   36.2400 N   0  0  0  0  0  0  0  0  0  0  0  0
   29.0500   27.9600   35.1500 C   0  0  0  0  0  0  0  0  0  0  0  0
   30.3400   28.4900   35.2600 C   0  0  0  0  0  0  0  0  0  0  0  0
   31.1100   28.8200   34.1400 C   0  0  0  0  0  0  0  0  0  0  0  0
   30.5200   28.6700   32.8800 C   0  0  0  0  0  0  0  0  0  0  0  0
   29.2900   28.0200   32.7700 C   0  0  0  0  0  0  0  0  0  0  0  0
   28.5200   27.7100   33.8900 C   0  0  0  0  0  0  0  0  0  0  0  0
   27.2700   27.0800   33.7600 C   0  0  0  0  0  0  0  0  0  0  0  0
   26.7500   26.8800   32.4900 N   0  0  0  0  0  0  0  0  0  0  0  0
   23.0408   26.1736   36.1710 C   0  0  0  0  0  0  0  0  0  0  0  0
   22.3077   26.8724   35.1954 C   0  0  0  0  0  0  0  0  0  0  0  0
   20.9160   26.9619   35.3078 C   0  0  0  0  0  0  0  0  0  0  0  0
   19.9809   27.8403   34.1101 S   0  0  0  0  0  6  0  0  0  0  0  0
   20.7320   29.0709   33.6826 O   0  0  0  0  0  0  0  0  0  0  0  0
   18.6680   28.2590   34.7115 O   0  0  0  0  0  0  0  0  0  0  0  0
   19.6830   26.7971   32.7031 C   0  0  0  0  0  0  0  0  0  0  0  0
   20.2820   26.3773   36.3577 N   0  0  0  0  0  0  0  0  0  0  0  0
   20.9621   25.7033   37.3240 C   0  0  0  0  0  0  0  0  0  0  0  0
   22.3562   25.5996   37.2503 C   0  0  0  0  0  0  0  0  0  0  0  0
   20.2195   25.0928   38.4689 C   0  0  0  0  0  0  0  0  0  0  0  0
  1  2  1  0
  2  3  2  0
  2  4  1  0
  4  5  2  0
  5  6  1  0
  6  7  2  0
  7  8  1  0
  8  9  2  0
  9 10  1  0
 10 11  2  0
 11 12  1  0
 12 13  2  0
 13 14  1  0
  1 15  1  0
 15 16  2  0
 16 17  1  0
 17 18  1  0
 18 19  2  0
 18 20  2  0
 18 21  1  0
 17 22  2  0
 22 23  1  0
 23 24  2  0
 23 25  1  0
 13  4  1  0
 24 15  1  0
 12  7  1  0
M  END
>  <AAScore>  (1) 
186.02772315774413

>  <RootName>  (1) 
./4ZLY/04_DeltaGEst/trajectory_00/rank_00/lead_0069

$$$$
