confid_0
     RDKit          3D

 27 30  0  0  0  0  0  0  0  0999 V2000
   24.5700   26.8800   35.5900 N   0  0  0  0  0  0  0  0  0  0  0  0
   25.5000   26.4000   34.6900 C   0  0  0  0  0  0  0  0  0  0  0  0
   25.1700   25.5200   33.9100 O   0  0  0  0  0  0  0  0  0  0  0  0
   26.8400   27.0200   34.7400 C   0  0  0  0  0  0  0  0  0  0  0  0
   27.3800   27.2800   35.9400 N   0  0  0  0  0  0  0  0  0  0  0  0
   28.6200   27.7400   36.0300 N   0  0  0  0  0  0  0  0  0  0  0  0
   29.3800   28.0000   34.9600 C   0  0  0  0  0  0  0  0  0  0  0  0
   30.6700   28.5000   35.1300 C   0  0  0  0  0  0  0  0  0  0  0  0
   31.5400   28.6100   34.0300 C   0  0  0  0  0  0  0  0  0  0  0  0
   31.0900   28.2200   32.7700 C   0  0  0  0  0  0  0  0  0  0  0  0
   29.8000   27.7000   32.6000 C   0  0  0  0  0  0  0  0  0  0  0  0
   28.9600   27.5500   33.7100 C   0  0  0  0  0  0  0  0  0  0  0  0
   27.6600   27.0300   33.5900 C   0  0  0  0  0  0  0  0  0  0  0  0
   27.1600   26.7400   32.3400 N   0  0  0  0  0  0  0  0  0  0  0  0
   23.3951   26.1649   36.0031 C   0  0  0  0  0  0  0  0  0  0  0  0
   22.2826   26.8642   36.3314 N   0  0  0  0  0  0  0  0  0  0  0  0
   21.1544   26.2584   36.7759 C   0  0  0  0  0  0  0  0  0  0  0  0
   21.0905   24.8610   36.9050 C   0  0  0  0  0  0  0  0  0  0  0  0
   19.8020   24.2763   37.3385 C   0  0  0  0  0  0  0  0  0  0  0  0
   19.1717   24.8309   38.2788 O   0  0  0  0  0  0  0  0  0  0  0  0
   19.2053   23.1662   36.6411 N   0  0  0  0  0  0  0  0  0  0  0  0
   17.7922   22.8441   36.8730 C   0  0  0  0  0  0  0  0  0  0  0  0
   20.0222   22.3390   35.7504 C   0  0  0  0  0  0  0  0  0  0  0  0
   21.1380   21.6883   36.5671 C   0  0  0  0  0  0  0  0  0  0  0  0
   22.3690   22.5920   36.8208 C   0  0  0  0  0  0  0  0  0  0  0  0
   22.2369   24.0916   36.5742 C   0  0  0  0  0  0  0  0  0  0  0  0
   23.3943   24.7705   36.1453 C   0  0  0  0  0  0  0  0  0  0  0  0
  1  2  1  0
  2  3  2  0
  2  4  1  0
  4  5  2  0
  5  6  1  0
  6  7  2  0
  7  8  1  0
  8  9  2  0
  9 10  1  0
 10 11  2  0
 11 12  1  0
 12 13  2  0
 13 14  1  0
  1 15  1  0
 15 16  2  0
 16 17  1  0
 17 18  2  0
 18 19  1  0
 19 20  2  0
 19 21  1  0
 21 22  1  0
 21 23  1  0
 23 24  1  0
 24 25  1  0
 25 26  1  0
 26 27  2  0
 13  4  1  0
 27 15  1  0
 12  7  1  0
 26 18  1  0
M  END
>  <AAScore>  (1) 
1829.2067064214232

>  <RootName>  (1) 
./4ZLY/04_DeltaGEst/trajectory_05/rank_00/lead_0418

$$$$
