confid_19
     RDKit          3D

 27 30  0  0  0  0  0  0  0  0999 V2000
   25.3300   26.2600   34.7600 N   0  0  0  0  0  0  0  0  0  0  0  0
   26.1200   25.9200   33.6900 C   0  0  0  0  0  0  0  0  0  0  0  0
   25.6300   25.1100   32.9400 O   0  0  0  0  0  0  0  0  0  0  0  0
   27.5200   26.3800   33.4600 C   0  0  0  0  0  0  0  0  0  0  0  0
   28.1600   26.6300   34.6100 N   0  0  0  0  0  0  0  0  0  0  0  0
   29.4800   26.8500   34.5700 N   0  0  0  0  0  0  0  0  0  0  0  0
   30.1900   26.7800   33.4400 C   0  0  0  0  0  0  0  0  0  0  0  0
   31.5600   27.0500   33.5000 C   0  0  0  0  0  0  0  0  0  0  0  0
   32.2700   27.2400   32.3100 C   0  0  0  0  0  0  0  0  0  0  0  0
   31.6100   27.2500   31.0800 C   0  0  0  0  0  0  0  0  0  0  0  0
   30.2700   26.8700   31.0600 C   0  0  0  0  0  0  0  0  0  0  0  0
   29.5100   26.6900   32.2300 C   0  0  0  0  0  0  0  0  0  0  0  0
   28.1400   26.4100   32.2000 C   0  0  0  0  0  0  0  0  0  0  0  0
   27.4300   26.1300   31.0500 N   0  0  0  0  0  0  0  0  0  0  0  0
   23.8912   26.2173   34.7790 C   0  0  0  0  0  0  0  0  0  0  0  0
   23.2485   26.0503   35.9676 N   0  0  0  0  0  0  0  0  0  0  0  0
   21.8916   26.0342   36.0388 C   0  0  0  0  0  0  0  0  0  0  0  0
   21.1703   25.8655   37.3322 C   0  0  0  0  0  0  0  0  0  0  0  0
   20.0744   26.8513   37.3833 N   0  0  0  0  0  0  0  0  0  0  0  0
   19.5365   26.9592   38.7530 C   0  0  0  0  0  0  0  0  0  0  0  0
   19.0501   26.7187   36.2852 C   0  0  0  0  0  0  0  0  0  0  0  0
   17.8322   25.8581   36.7128 C   0  0  0  0  0  0  0  0  0  0  0  0
   18.5525   28.1365   35.9343 C   0  0  0  0  0  0  0  0  0  0  0  0
   19.6471   26.0813   34.9725 C   0  0  0  0  0  0  0  0  0  0  0  0
   21.1366   26.2095   34.8853 C   0  0  0  0  0  0  0  0  0  0  0  0
   21.7655   26.3823   33.6933 N   0  0  0  0  0  0  0  0  0  0  0  0
   23.1227   26.4062   33.6139 C   0  0  0  0  0  0  0  0  0  0  0  0
  1  2  1  0
  2  3  2  0
  2  4  1  0
  4  5  2  0
  5  6  1  0
  6  7  2  0
  7  8  1  0
  8  9  2  0
  9 10  1  0
 10 11  2  0
 11 12  1  0
 12 13  2  0
 13 14  1  0
  1 15  1  0
 15 16  2  0
 16 17  1  0
 17 18  1  0
 18 19  1  0
 19 20  1  0
 19 21  1  0
 21 22  1  0
 21 23  1  0
 21 24  1  0
 24 25  1  0
 25 26  1  0
 26 27  2  0
 13  4  1  0
 27 15  1  0
 12  7  1  0
 25 17  2  0
M  END
>  <AAScore>  (1) 
3270.0570074380807

>  <RootName>  (1) 
./4ZLY/04_DeltaGEst/trajectory_03/rank_00/lead_0065

$$$$
