confid_14
     RDKit          3D

 30 34  0  0  0  0  0  0  0  0999 V2000
   25.3300   26.2600   34.7600 N   0  0  0  0  0  0  0  0  0  0  0  0
   26.1200   25.9200   33.6900 C   0  0  0  0  0  0  0  0  0  0  0  0
   25.6300   25.1100   32.9400 O   0  0  0  0  0  0  0  0  0  0  0  0
   27.5200   26.3800   33.4600 C   0  0  0  0  0  0  0  0  0  0  0  0
   28.1600   26.6300   34.6100 N   0  0  0  0  0  0  0  0  0  0  0  0
   29.4800   26.8500   34.5700 N   0  0  0  0  0  0  0  0  0  0  0  0
   30.1900   26.7800   33.4400 C   0  0  0  0  0  0  0  0  0  0  0  0
   31.5600   27.0500   33.5000 C   0  0  0  0  0  0  0  0  0  0  0  0
   32.2700   27.2400   32.3100 C   0  0  0  0  0  0  0  0  0  0  0  0
   31.6100   27.2500   31.0800 C   0  0  0  0  0  0  0  0  0  0  0  0
   30.2700   26.8700   31.0600 C   0  0  0  0  0  0  0  0  0  0  0  0
   29.5100   26.6900   32.2300 C   0  0  0  0  0  0  0  0  0  0  0  0
   28.1400   26.4100   32.2000 C   0  0  0  0  0  0  0  0  0  0  0  0
   27.4300   26.1300   31.0500 N   0  0  0  0  0  0  0  0  0  0  0  0
   27.5582   24.8152   30.4139 C   0  0  0  0  0  0  0  0  0  0  0  0
   26.6893   24.7419   29.1578 C   0  0  0  0  0  0  0  0  0  0  0  0
   26.9407   25.9309   28.3181 N   0  0  0  0  0  0  0  0  0  0  0  0
   26.2597   25.8207   27.0108 C   0  0  0  0  0  0  0  0  0  0  0  0
   26.9249   24.7882   26.1374 C   0  0  0  0  0  0  0  0  0  0  0  0
   26.2634   23.5386   25.8727 C   0  0  0  0  0  0  0  0  0  0  0  0
   26.8706   22.5380   25.0686 C   0  0  0  0  0  0  0  0  0  0  0  0
   28.1213   22.8537   24.5672 C   0  0  0  0  0  0  0  0  0  0  0  0
   29.2468   22.4032   23.7688 C   0  0  0  0  0  0  0  0  0  0  0  0
   29.5391   21.3580   23.1312 O   0  0  0  0  0  0  0  0  0  0  0  0
   29.8792   23.6540   24.0195 N   0  0  0  0  0  0  0  0  0  0  0  0
   31.1703   24.2396   23.7004 C   0  0  0  0  0  0  0  0  0  0  0  0
   28.7520   24.0387   24.8164 C   0  0  0  0  0  0  0  0  0  0  0  0
   28.2178   25.0504   25.5970 C   0  0  0  0  0  0  0  0  0  0  0  0
   26.5672   27.2054   28.9934 C   0  0  0  0  0  0  0  0  0  0  0  0
   26.4717   27.1077   30.5282 C   0  0  0  0  0  0  0  0  0  0  0  0
  1  2  1  0
  2  3  2  0
  2  4  1  0
  4  5  2  0
  5  6  1  0
  6  7  2  0
  7  8  1  0
  8  9  2  0
  9 10  1  0
 10 11  2  0
 11 12  1  0
 12 13  2  0
 13 14  1  0
 14 15  1  0
 15 16  1  0
 16 17  1  0
 17 18  1  0
 18 19  1  0
 19 20  2  0
 20 21  1  0
 21 22  2  0
 22 23  1  0
 23 24  2  0
 23 25  1  0
 25 26  1  0
 25 27  1  0
 27 28  2  0
 17 29  1  0
 29 30  1  0
 13  4  1  0
 30 14  1  0
 12  7  1  0
 28 19  1  0
 27 22  1  0
M  END
>  <AAScore>  (1) 
-0.0330916498643295

>  <RootName>  (1) 
./4ZLY/04_DeltaGEst/trajectory_03/rank_01/lead_0405

$$$$
