confid_1
     RDKit          3D

 26 29  0  0  0  0  0  0  0  0999 V2000
   24.5500   26.3900   36.2500 N   0  0  0  0  0  0  0  0  0  0  0  0
   25.6000   26.1300   35.4000 C   0  0  0  0  0  0  0  0  0  0  0  0
   25.4300   25.4300   34.4200 O   0  0  0  0  0  0  0  0  0  0  0  0
   26.9800   26.6300   35.7100 C   0  0  0  0  0  0  0  0  0  0  0  0
   27.3200   26.8200   36.9800 N   0  0  0  0  0  0  0  0  0  0  0  0
   28.4700   27.4000   37.3100 N   0  0  0  0  0  0  0  0  0  0  0  0
   29.4000   27.6300   36.3700 C   0  0  0  0  0  0  0  0  0  0  0  0
   30.6600   28.0500   36.8000 C   0  0  0  0  0  0  0  0  0  0  0  0
   31.5700   28.3600   35.7800 C   0  0  0  0  0  0  0  0  0  0  0  0
   31.3700   28.1000   34.4300 C   0  0  0  0  0  0  0  0  0  0  0  0
   30.1200   27.5900   34.0500 C   0  0  0  0  0  0  0  0  0  0  0  0
   29.1500   27.3400   35.0300 C   0  0  0  0  0  0  0  0  0  0  0  0
   27.8800   26.8900   34.6600 C   0  0  0  0  0  0  0  0  0  0  0  0
   27.4800   26.6100   33.3700 N   0  0  0  0  0  0  0  0  0  0  0  0
   30.9671   28.2910   38.1836 N   0  0  0  0  0  0  0  0  0  0  0  0
   31.3907   29.6291   38.5986 C   0  0  0  0  0  0  0  0  0  0  0  0
   30.8502   29.9224   39.9900 C   0  0  0  0  0  0  0  0  0  0  0  0
   31.2709   28.8480   40.9456 C   0  0  0  0  0  0  0  0  0  0  0  0
   31.4874   29.1787   42.2446 N   0  0  0  0  0  0  0  0  0  0  0  0
   31.8592   28.2613   43.1693 C   0  0  0  0  0  0  0  0  0  0  0  0
   32.0183   26.9231   42.8108 C   0  0  0  0  0  0  0  0  0  0  0  0
   32.5518   25.7947   44.0548 Cl  0  0  0  0  0  0  0  0  0  0  0  0
   31.7613   26.5223   41.4810 C   0  0  0  0  0  0  0  0  0  0  0  0
   31.4037   27.5074   40.5225 C   0  0  0  0  0  0  0  0  0  0  0  0
   31.1594   27.1319   39.0687 C   0  0  0  0  0  0  0  0  0  0  0  0
   31.9471   25.0766   41.0771 C   0  0  0  0  0  0  0  0  0  0  0  0
  1  2  1  0
  2  3  2  0
  2  4  1  0
  4  5  2  0
  5  6  1  0
  6  7  2  0
  7  8  1  0
  8  9  2  0
  9 10  1  0
 10 11  2  0
 11 12  1  0
 12 13  2  0
 13 14  1  0
  8 15  1  0
 15 16  1  0
 16 17  1  0
 17 18  1  0
 18 19  2  0
 19 20  1  0
 20 21  2  0
 21 22  1  0
 21 23  1  0
 23 24  2  0
 24 25  1  0
 23 26  1  0
 13  4  1  0
 25 15  1  0
 12  7  1  0
 24 18  1  0
M  END
>  <AAScore>  (1) 
12.087812373566589

>  <RootName>  (1) 
./4ZLY/04_DeltaGEst/trajectory_01/rank_01/lead_0065

$$$$
