confid_7
     RDKit          3D

 28 31  0  0  0  0  0  0  0  0999 V2000
   25.3300   26.2600   34.7600 N   0  0  0  0  0  0  0  0  0  0  0  0
   26.1200   25.9200   33.6900 C   0  0  0  0  0  0  0  0  0  0  0  0
   25.6300   25.1100   32.9400 O   0  0  0  0  0  0  0  0  0  0  0  0
   27.5200   26.3800   33.4600 C   0  0  0  0  0  0  0  0  0  0  0  0
   28.1600   26.6300   34.6100 N   0  0  0  0  0  0  0  0  0  0  0  0
   29.4800   26.8500   34.5700 N   0  0  0  0  0  0  0  0  0  0  0  0
   30.1900   26.7800   33.4400 C   0  0  0  0  0  0  0  0  0  0  0  0
   31.5600   27.0500   33.5000 C   0  0  0  0  0  0  0  0  0  0  0  0
   32.2700   27.2400   32.3100 C   0  0  0  0  0  0  0  0  0  0  0  0
   31.6100   27.2500   31.0800 C   0  0  0  0  0  0  0  0  0  0  0  0
   30.2700   26.8700   31.0600 C   0  0  0  0  0  0  0  0  0  0  0  0
   29.5100   26.6900   32.2300 C   0  0  0  0  0  0  0  0  0  0  0  0
   28.1400   26.4100   32.2000 C   0  0  0  0  0  0  0  0  0  0  0  0
   27.4300   26.1300   31.0500 N   0  0  0  0  0  0  0  0  0  0  0  0
   23.9098   26.0486   34.8097 C   0  0  0  0  0  0  0  0  0  0  0  0
   23.1219   26.0543   33.7180 N   0  0  0  0  0  0  0  0  0  0  0  0
   21.8654   26.0010   34.2124 C   0  0  0  0  0  0  0  0  0  0  0  0
   20.6678   26.0847   33.3118 C   0  0  0  0  0  0  0  0  0  0  0  0
   19.9783   27.4622   33.3973 C   0  0  0  0  0  0  0  0  0  0  0  0
   20.3240   28.1541   34.5869 O   0  0  0  0  0  0  0  0  0  0  0  0
   19.4024   27.9056   35.6301 C   0  0  0  0  0  0  0  0  0  0  0  0
   19.3519   26.4341   36.0785 C   0  0  0  0  0  0  0  0  0  0  0  0
   20.7046   25.8368   36.5135 C   0  0  0  0  0  0  0  0  0  0  0  0
   21.8281   26.0182   35.5740 N   0  0  0  0  0  0  0  0  0  0  0  0
   23.1234   26.0103   35.9455 C   0  0  0  0  0  0  0  0  0  0  0  0
   23.5348   25.9268   37.2850 O   0  0  0  0  0  0  0  0  0  0  0  0
   24.6910   25.2248   37.7432 C   0  0  0  0  0  0  0  0  0  0  0  0
   24.5981   23.7406   37.4053 C   0  0  0  0  0  0  0  0  0  0  0  0
  1  2  1  0
  2  3  2  0
  2  4  1  0
  4  5  2  0
  5  6  1  0
  6  7  2  0
  7  8  1  0
  8  9  2  0
  9 10  1  0
 10 11  2  0
 11 12  1  0
 12 13  2  0
 13 14  1  0
  1 15  1  0
 15 16  1  0
 16 17  2  0
 17 18  1  0
 18 19  1  0
 19 20  1  0
 20 21  1  0
 21 22  1  0
 22 23  1  0
 23 24  1  0
 24 25  1  0
 25 26  1  0
 26 27  1  0
 27 28  1  0
 13  4  1  0
 25 15  2  0
 12  7  1  0
 24 17  1  0
M  END
>  <AAScore>  (1) 
2509.634093706024

>  <RootName>  (1) 
./4ZLY/04_DeltaGEst/trajectory_03/rank_00/lead_0190

$$$$
