confid_16
     RDKit          3D

 27 30  0  0  0  0  0  0  0  0999 V2000
   25.3300   26.2600   34.7600 N   0  0  0  0  0  0  0  0  0  0  0  0
   26.1200   25.9200   33.6900 C   0  0  0  0  0  0  0  0  0  0  0  0
   25.6300   25.1100   32.9400 O   0  0  0  0  0  0  0  0  0  0  0  0
   27.5200   26.3800   33.4600 C   0  0  0  0  0  0  0  0  0  0  0  0
   28.1600   26.6300   34.6100 N   0  0  0  0  0  0  0  0  0  0  0  0
   29.4800   26.8500   34.5700 N   0  0  0  0  0  0  0  0  0  0  0  0
   30.1900   26.7800   33.4400 C   0  0  0  0  0  0  0  0  0  0  0  0
   31.5600   27.0500   33.5000 C   0  0  0  0  0  0  0  0  0  0  0  0
   32.2700   27.2400   32.3100 C   0  0  0  0  0  0  0  0  0  0  0  0
   31.6100   27.2500   31.0800 C   0  0  0  0  0  0  0  0  0  0  0  0
   30.2700   26.8700   31.0600 C   0  0  0  0  0  0  0  0  0  0  0  0
   29.5100   26.6900   32.2300 C   0  0  0  0  0  0  0  0  0  0  0  0
   28.1400   26.4100   32.2000 C   0  0  0  0  0  0  0  0  0  0  0  0
   27.4300   26.1300   31.0500 N   0  0  0  0  0  0  0  0  0  0  0  0
   24.2071   25.5071   35.2652 C   0  0  0  0  0  0  0  0  0  0  0  0
   23.8579   24.3100   34.7152 N   0  0  0  0  0  0  0  0  0  0  0  0
   22.8264   23.5667   35.1929 C   0  0  0  0  0  0  0  0  0  0  0  0
   22.0769   24.0203   36.2863 C   0  0  0  0  0  0  0  0  0  0  0  0
   20.9795   23.1567   36.8565 C   0  0  0  0  0  0  0  0  0  0  0  0
   20.0369   23.8910   37.7268 N   0  0  0  0  0  0  0  0  0  0  0  0
   18.8610   23.1892   38.1924 C   0  0  0  0  0  0  0  0  0  0  0  0
   18.7780   21.9391   38.0453 O   0  0  0  0  0  0  0  0  0  0  0  0
   17.7220   23.9039   38.8598 C   0  0  0  0  0  0  0  0  0  0  0  0
   20.2003   25.3327   37.9888 C   0  0  0  0  0  0  0  0  0  0  0  0
   21.6759   25.7117   38.0937 C   0  0  0  0  0  0  0  0  0  0  0  0
   22.4170   25.2458   36.8779 C   0  0  0  0  0  0  0  0  0  0  0  0
   23.4894   25.9888   36.3688 C   0  0  0  0  0  0  0  0  0  0  0  0
  1  2  1  0
  2  3  2  0
  2  4  1  0
  4  5  2  0
  5  6  1  0
  6  7  2  0
  7  8  1  0
  8  9  2  0
  9 10  1  0
 10 11  2  0
 11 12  1  0
 12 13  2  0
 13 14  1  0
  1 15  1  0
 15 16  2  0
 16 17  1  0
 17 18  2  0
 18 19  1  0
 19 20  1  0
 20 21  1  0
 21 22  2  0
 21 23  1  0
 20 24  1  0
 24 25  1  0
 25 26  1  0
 26 27  2  0
 13  4  1  0
 27 15  1  0
 12  7  1  0
 26 18  1  0
M  END
>  <AAScore>  (1) 
1848.8560042308404

>  <RootName>  (1) 
./4ZLY/04_DeltaGEst/trajectory_03/rank_00/lead_0083

$$$$
