confid_14
     RDKit          3D

 27 30  0  0  0  0  0  0  0  0999 V2000
   24.2000   26.2400   35.6900 N   0  0  0  0  0  0  0  0  0  0  0  0
   24.8500   26.2800   34.4800 C   0  0  0  0  0  0  0  0  0  0  0  0
   24.3100   25.7400   33.5400 O   0  0  0  0  0  0  0  0  0  0  0  0
   26.1800   26.9700   34.4700 C   0  0  0  0  0  0  0  0  0  0  0  0
   26.6500   27.6000   35.5500 N   0  0  0  0  0  0  0  0  0  0  0  0
   27.7900   28.2700   35.6200 N   0  0  0  0  0  0  0  0  0  0  0  0
   28.5400   28.3000   34.5100 C   0  0  0  0  0  0  0  0  0  0  0  0
   29.7700   28.9400   34.5600 C   0  0  0  0  0  0  0  0  0  0  0  0
   30.7000   28.8900   33.5000 C   0  0  0  0  0  0  0  0  0  0  0  0
   30.3700   28.1400   32.3700 C   0  0  0  0  0  0  0  0  0  0  0  0
   29.1200   27.5200   32.2800 C   0  0  0  0  0  0  0  0  0  0  0  0
   28.2100   27.6100   33.3300 C   0  0  0  0  0  0  0  0  0  0  0  0
   26.9700   26.9700   33.3100 C   0  0  0  0  0  0  0  0  0  0  0  0
   26.5300   26.2400   32.2200 N   0  0  0  0  0  0  0  0  0  0  0  0
   30.1531   29.6771   35.7320 N   0  0  0  0  0  0  0  0  0  0  0  0
   31.4044   30.2285   36.2882 C   0  0  0  0  0  0  0  0  0  0  0  0
   30.7756   30.8586   37.5001 C   0  0  0  0  0  0  0  0  0  0  0  0
   30.7867   32.3730   37.5609 C   0  0  0  0  0  0  0  0  0  0  0  0
   31.0462   33.1199   36.4498 N   0  0  0  0  0  0  0  0  0  0  0  0
   31.0299   34.4820   36.4710 C   0  0  0  0  0  0  0  0  0  0  0  0
   30.7324   35.1565   37.6599 C   0  0  0  0  0  0  0  0  0  0  0  0
   30.4481   34.4205   38.8192 C   0  0  0  0  0  0  0  0  0  0  0  0
   30.0987   35.1167   40.1028 C   0  0  0  0  0  0  0  0  0  0  0  0
   30.4693   33.0179   38.7662 C   0  0  0  0  0  0  0  0  0  0  0  0
   31.3013   35.2178   35.3138 O   0  0  0  0  0  0  0  0  0  0  0  0
   31.6350   34.6019   34.0723 C   0  0  0  0  0  0  0  0  0  0  0  0
   29.5170   30.3024   36.9119 C   0  0  0  0  0  0  0  0  0  0  0  0
  1  2  1  0
  2  3  2  0
  2  4  1  0
  4  5  2  0
  5  6  1  0
  6  7  2  0
  7  8  1  0
  8  9  2  0
  9 10  1  0
 10 11  2  0
 11 12  1  0
 12 13  2  0
 13 14  1  0
  8 15  1  0
 15 16  1  0
 16 17  1  0
 17 18  1  0
 18 19  2  0
 19 20  1  0
 20 21  2  0
 21 22  1  0
 22 23  1  0
 22 24  2  0
 20 25  1  0
 25 26  1  0
 17 27  1  0
 13  4  1  0
 27 15  1  0
 12  7  1  0
 24 18  1  0
M  END
>  <AAScore>  (1) 
-6.8421111525013325

>  <RootName>  (1) 
./4ZLY/04_DeltaGEst/trajectory_04/rank_01/lead_0277

$$$$
