confid_19
     RDKit          3D

 27 30  0  0  0  0  0  0  0  0999 V2000
   25.3300   26.2600   34.7600 N   0  0  0  0  0  0  0  0  0  0  0  0
   26.1200   25.9200   33.6900 C   0  0  0  0  0  0  0  0  0  0  0  0
   25.6300   25.1100   32.9400 O   0  0  0  0  0  0  0  0  0  0  0  0
   27.5200   26.3800   33.4600 C   0  0  0  0  0  0  0  0  0  0  0  0
   28.1600   26.6300   34.6100 N   0  0  0  0  0  0  0  0  0  0  0  0
   29.4800   26.8500   34.5700 N   0  0  0  0  0  0  0  0  0  0  0  0
   30.1900   26.7800   33.4400 C   0  0  0  0  0  0  0  0  0  0  0  0
   31.5600   27.0500   33.5000 C   0  0  0  0  0  0  0  0  0  0  0  0
   32.2700   27.2400   32.3100 C   0  0  0  0  0  0  0  0  0  0  0  0
   31.6100   27.2500   31.0800 C   0  0  0  0  0  0  0  0  0  0  0  0
   30.2700   26.8700   31.0600 C   0  0  0  0  0  0  0  0  0  0  0  0
   29.5100   26.6900   32.2300 C   0  0  0  0  0  0  0  0  0  0  0  0
   28.1400   26.4100   32.2000 C   0  0  0  0  0  0  0  0  0  0  0  0
   27.4300   26.1300   31.0500 N   0  0  0  0  0  0  0  0  0  0  0  0
   23.8923   26.2372   34.7810 C   0  0  0  0  0  0  0  0  0  0  0  0
   23.1790   26.4143   35.9098 N   0  0  0  0  0  0  0  0  0  0  0  0
   21.8927   26.3524   35.5010 C   0  0  0  0  0  0  0  0  0  0  0  0
   20.7490   26.5852   36.4571 C   0  0  0  0  0  0  0  0  0  0  0  0
   19.5859   25.7258   36.1618 N   0  0  0  0  0  0  0  0  0  0  0  0
   19.8606   24.2840   36.3606 C   0  0  0  0  0  0  0  0  0  0  0  0
   19.5807   23.5349   35.0566 C   0  0  0  0  0  0  0  0  0  0  0  0
   20.6653   23.6972   34.1588 O   0  0  0  0  0  0  0  0  0  0  0  0
   20.3375   24.5164   33.0492 C   0  0  0  0  0  0  0  0  0  0  0  0
   20.5783   26.0053   33.3431 C   0  0  0  0  0  0  0  0  0  0  0  0
   21.7828   26.1861   34.1580 N   0  0  0  0  0  0  0  0  0  0  0  0
   23.0438   26.1026   33.7000 C   0  0  0  0  0  0  0  0  0  0  0  0
   18.4163   26.1632   36.9395 C   0  0  0  0  0  0  0  0  0  0  0  0
  1  2  1  0
  2  3  2  0
  2  4  1  0
  4  5  2  0
  5  6  1  0
  6  7  2  0
  7  8  1  0
  8  9  2  0
  9 10  1  0
 10 11  2  0
 11 12  1  0
 12 13  2  0
 13 14  1  0
  1 15  1  0
 15 16  1  0
 16 17  2  0
 17 18  1  0
 18 19  1  0
 19 20  1  0
 20 21  1  0
 21 22  1  0
 22 23  1  0
 23 24  1  0
 24 25  1  0
 25 26  1  0
 19 27  1  0
 13  4  1  0
 26 15  2  0
 12  7  1  0
 25 17  1  0
M  END
>  <AAScore>  (1) 
18998.667614761463

>  <RootName>  (1) 
./4ZLY/04_DeltaGEst/trajectory_03/rank_00/lead_0144

$$$$
