confid_11
     RDKit          3D

 27 30  0  0  0  0  0  0  0  0999 V2000
   24.5700   26.8800   35.5900 N   0  0  0  0  0  0  0  0  0  0  0  0
   25.5000   26.4000   34.6900 C   0  0  0  0  0  0  0  0  0  0  0  0
   25.1700   25.5200   33.9100 O   0  0  0  0  0  0  0  0  0  0  0  0
   26.8400   27.0200   34.7400 C   0  0  0  0  0  0  0  0  0  0  0  0
   27.3800   27.2800   35.9400 N   0  0  0  0  0  0  0  0  0  0  0  0
   28.6200   27.7400   36.0300 N   0  0  0  0  0  0  0  0  0  0  0  0
   29.3800   28.0000   34.9600 C   0  0  0  0  0  0  0  0  0  0  0  0
   30.6700   28.5000   35.1300 C   0  0  0  0  0  0  0  0  0  0  0  0
   31.5400   28.6100   34.0300 C   0  0  0  0  0  0  0  0  0  0  0  0
   31.0900   28.2200   32.7700 C   0  0  0  0  0  0  0  0  0  0  0  0
   29.8000   27.7000   32.6000 C   0  0  0  0  0  0  0  0  0  0  0  0
   28.9600   27.5500   33.7100 C   0  0  0  0  0  0  0  0  0  0  0  0
   27.6600   27.0300   33.5900 C   0  0  0  0  0  0  0  0  0  0  0  0
   27.1600   26.7400   32.3400 N   0  0  0  0  0  0  0  0  0  0  0  0
   23.1413   26.8687   35.4078 C   0  0  0  0  0  0  0  0  0  0  0  0
   22.3510   27.2469   36.3609 N   0  0  0  0  0  0  0  0  0  0  0  0
   21.0247   27.2454   35.8541 C   0  0  0  0  0  0  0  0  0  0  0  0
   21.0077   26.9145   34.5718 C   0  0  0  0  0  0  0  0  0  0  0  0
   19.9802   26.0354   33.9608 C   0  0  0  0  0  0  0  0  0  0  0  0
   20.8489   24.9630   33.4044 C   0  0  0  0  0  0  0  0  0  0  0  0
   20.4038   23.9665   32.8576 O   0  0  0  0  0  0  0  0  0  0  0  0
   22.3179   25.2039   33.5887 C   0  0  0  0  0  0  0  0  0  0  0  0
   22.3985   26.6573   34.1048 C   0  0  2  0  0  0  0  0  0  0  0  0
   22.8086   27.6638   33.0011 C   0  0  0  0  0  0  0  0  0  0  0  0
   22.8283   29.0531   33.5247 N   0  0  0  0  0  0  0  0  0  0  0  0
   21.6964   29.8388   33.0059 C   0  0  0  0  0  0  0  0  0  0  0  0
   24.0942   29.7299   33.1994 C   0  0  0  0  0  0  0  0  0  0  0  0
  1  2  1  0
  2  3  2  0
  2  4  1  0
  4  5  2  0
  5  6  1  0
  6  7  2  0
  7  8  1  0
  8  9  2  0
  9 10  1  0
 10 11  2  0
 11 12  1  0
 12 13  2  0
 13 14  1  0
  1 15  1  0
 15 16  2  0
 16 17  1  0
 17 18  2  0
 18 19  1  0
 19 20  1  0
 20 21  2  0
 20 22  1  0
 22 23  1  0
 23 24  1  6
 24 25  1  0
 25 26  1  0
 25 27  1  0
 13  4  1  0
 23 15  1  0
 12  7  1  0
 23 18  1  0
M  END
>  <AAScore>  (1) 
3513.4936254552745

>  <RootName>  (1) 
./4ZLY/04_DeltaGEst/trajectory_05/rank_00/lead_0143

$$$$
