confid_8
     RDKit          3D

 30 34  0  0  0  0  0  0  0  0999 V2000
   24.5500   26.3900   36.2500 N   0  0  0  0  0  0  0  0  0  0  0  0
   25.6000   26.1300   35.4000 C   0  0  0  0  0  0  0  0  0  0  0  0
   25.4300   25.4300   34.4200 O   0  0  0  0  0  0  0  0  0  0  0  0
   26.9800   26.6300   35.7100 C   0  0  0  0  0  0  0  0  0  0  0  0
   27.3200   26.8200   36.9800 N   0  0  0  0  0  0  0  0  0  0  0  0
   28.4700   27.4000   37.3100 N   0  0  0  0  0  0  0  0  0  0  0  0
   29.4000   27.6300   36.3700 C   0  0  0  0  0  0  0  0  0  0  0  0
   30.6600   28.0500   36.8000 C   0  0  0  0  0  0  0  0  0  0  0  0
   31.5700   28.3600   35.7800 C   0  0  0  0  0  0  0  0  0  0  0  0
   31.3700   28.1000   34.4300 C   0  0  0  0  0  0  0  0  0  0  0  0
   30.1200   27.5900   34.0500 C   0  0  0  0  0  0  0  0  0  0  0  0
   29.1500   27.3400   35.0300 C   0  0  0  0  0  0  0  0  0  0  0  0
   27.8800   26.8900   34.6600 C   0  0  0  0  0  0  0  0  0  0  0  0
   27.4800   26.6100   33.3700 N   0  0  0  0  0  0  0  0  0  0  0  0
   30.9528   28.3470   38.1794 N   0  0  0  0  0  0  0  0  0  0  0  0
   32.2215   27.9122   38.7778 C   0  0  0  0  0  0  0  0  0  0  0  0
   33.1669   29.1164   38.9479 C   0  0  0  0  0  0  0  0  0  0  0  0
   32.4070   30.3759   38.9408 N   0  0  0  0  0  0  0  0  0  0  0  0
   32.7176   31.3734   37.9527 C   0  0  0  0  0  0  0  0  0  0  0  0
   31.8555   31.7787   36.9514 C   0  0  0  0  0  0  0  0  0  0  0  0
   32.5971   32.5969   36.1208 C   0  0  0  0  0  0  0  0  0  0  0  0
   32.0955   33.2661   34.8733 C   0  0  0  0  0  0  0  0  0  0  0  0
   31.3062   32.3690   33.9276 C   0  0  0  0  0  0  0  0  0  0  0  0
   32.7332   32.7576   33.5879 C   0  0  0  0  0  0  0  0  0  0  0  0
   33.8694   32.6889   36.6713 C   0  0  0  0  0  0  0  0  0  0  0  0
   35.0192   33.4744   36.1109 C   0  0  0  0  0  0  0  0  0  0  0  0
   33.9367   31.9353   37.7925 N   0  0  0  0  0  0  0  0  0  0  0  0
   35.1190   31.7126   38.6249 C   0  0  0  0  0  0  0  0  0  0  0  0
   31.0914   30.3762   39.5905 C   0  0  0  0  0  0  0  0  0  0  0  0
   30.1647   29.3658   38.8915 C   0  0  0  0  0  0  0  0  0  0  0  0
  1  2  1  0
  2  3  2  0
  2  4  1  0
  4  5  2  0
  5  6  1  0
  6  7  2  0
  7  8  1  0
  8  9  2  0
  9 10  1  0
 10 11  2  0
 11 12  1  0
 12 13  2  0
 13 14  1  0
  8 15  1  0
 15 16  1  0
 16 17  1  0
 17 18  1  0
 18 19  1  0
 19 20  2  0
 20 21  1  0
 21 22  1  0
 22 23  1  0
 23 24  1  0
 21 25  2  0
 25 26  1  0
 25 27  1  0
 27 28  1  0
 18 29  1  0
 29 30  1  0
 13  4  1  0
 30 15  1  0
 12  7  1  0
 27 19  1  0
 24 22  1  0
M  END
>  <AAScore>  (1) 
61.07394976430363

>  <RootName>  (1) 
./4ZLY/04_DeltaGEst/trajectory_01/rank_01/lead_0184

$$$$
