confid_7
     RDKit          3D

 31 35  0  0  0  0  0  0  0  0999 V2000
   25.3300   26.2600   34.7600 N   0  0  0  0  0  0  0  0  0  0  0  0
   26.1200   25.9200   33.6900 C   0  0  0  0  0  0  0  0  0  0  0  0
   25.6300   25.1100   32.9400 O   0  0  0  0  0  0  0  0  0  0  0  0
   27.5200   26.3800   33.4600 C   0  0  0  0  0  0  0  0  0  0  0  0
   28.1600   26.6300   34.6100 N   0  0  0  0  0  0  0  0  0  0  0  0
   29.4800   26.8500   34.5700 N   0  0  0  0  0  0  0  0  0  0  0  0
   30.1900   26.7800   33.4400 C   0  0  0  0  0  0  0  0  0  0  0  0
   31.5600   27.0500   33.5000 C   0  0  0  0  0  0  0  0  0  0  0  0
   32.2700   27.2400   32.3100 C   0  0  0  0  0  0  0  0  0  0  0  0
   31.6100   27.2500   31.0800 C   0  0  0  0  0  0  0  0  0  0  0  0
   30.2700   26.8700   31.0600 C   0  0  0  0  0  0  0  0  0  0  0  0
   29.5100   26.6900   32.2300 C   0  0  0  0  0  0  0  0  0  0  0  0
   28.1400   26.4100   32.2000 C   0  0  0  0  0  0  0  0  0  0  0  0
   27.4300   26.1300   31.0500 N   0  0  0  0  0  0  0  0  0  0  0  0
   24.3090   25.4098   35.3165 C   0  0  0  0  0  0  0  0  0  0  0  0
   23.2881   25.9993   35.8837 N   0  0  0  0  0  0  0  0  0  0  0  0
   22.0592   25.5350   36.4697 C   0  0  0  0  0  0  0  0  0  0  0  0
   21.4179   24.4531   36.0441 C   0  0  0  0  0  0  0  0  0  0  0  0
   19.9852   24.0943   35.7662 C   0  0  0  0  0  0  0  0  0  0  0  0
   20.2849   22.9715   34.9958 O   0  0  0  0  0  0  0  0  0  0  0  0
   21.6249   23.1607   35.3169 C   0  0  1  0  0  0  0  0  0  0  0  0
   22.5549   23.3138   34.1115 C   0  0  0  0  0  0  0  0  0  0  0  0
   23.9465   23.0388   34.6271 C   0  0  0  0  0  0  0  0  0  0  0  0
   24.6017   23.9455   35.4044 C   0  0  0  0  0  0  0  0  0  0  0  0
   25.8271   23.5819   36.2582 C   0  0  2  0  0  0  0  0  0  0  0  0
   26.9001   22.6869   35.5729 C   0  0  0  0  0  0  0  0  0  0  0  0
   26.7421   22.6866   34.1015 N   0  0  0  0  0  0  0  0  0  0  0  0
   28.0438   22.5305   33.4304 C   0  0  0  0  0  0  0  0  0  0  0  0
   25.8103   21.6271   33.6519 C   0  0  0  0  0  0  0  0  0  0  0  0
   24.4827   21.6349   34.4365 C   0  0  0  0  0  0  0  0  0  0  0  0
   25.3790   22.9967   37.6063 C   0  0  0  0  0  0  0  0  0  0  0  0
  1  2  1  0
  2  3  2  0
  2  4  1  0
  4  5  2  0
  5  6  1  0
  6  7  2  0
  7  8  1  0
  8  9  2  0
  9 10  1  0
 10 11  2  0
 11 12  1  0
 12 13  2  0
 13 14  1  0
  1 15  1  0
 15 16  2  0
 16 17  1  0
 17 18  2  0
 18 19  1  0
 19 20  1  0
 20 21  1  0
 21 22  1  6
 22 23  1  0
 23 24  2  0
 24 25  1  0
 25 26  1  0
 26 27  1  0
 27 28  1  0
 27 29  1  0
 29 30  1  0
 25 31  1  1
 13  4  1  0
 24 15  1  0
 12  7  1  0
 21 18  1  0
 30 23  1  0
M  END
>  <AAScore>  (1) 
69884.36345186029

>  <RootName>  (1) 
./4ZLY/04_DeltaGEst/trajectory_03/rank_00/lead_0249

$$$$
