confid_13
     RDKit          3D

 31 35  0  0  0  0  0  0  0  0999 V2000
   25.3300   26.2600   34.7600 N   0  0  0  0  0  0  0  0  0  0  0  0
   26.1200   25.9200   33.6900 C   0  0  0  0  0  0  0  0  0  0  0  0
   25.6300   25.1100   32.9400 O   0  0  0  0  0  0  0  0  0  0  0  0
   27.5200   26.3800   33.4600 C   0  0  0  0  0  0  0  0  0  0  0  0
   28.1600   26.6300   34.6100 N   0  0  0  0  0  0  0  0  0  0  0  0
   29.4800   26.8500   34.5700 N   0  0  0  0  0  0  0  0  0  0  0  0
   30.1900   26.7800   33.4400 C   0  0  0  0  0  0  0  0  0  0  0  0
   31.5600   27.0500   33.5000 C   0  0  0  0  0  0  0  0  0  0  0  0
   32.2700   27.2400   32.3100 C   0  0  0  0  0  0  0  0  0  0  0  0
   31.6100   27.2500   31.0800 C   0  0  0  0  0  0  0  0  0  0  0  0
   30.2700   26.8700   31.0600 C   0  0  0  0  0  0  0  0  0  0  0  0
   29.5100   26.6900   32.2300 C   0  0  0  0  0  0  0  0  0  0  0  0
   28.1400   26.4100   32.2000 C   0  0  0  0  0  0  0  0  0  0  0  0
   27.4300   26.1300   31.0500 N   0  0  0  0  0  0  0  0  0  0  0  0
   26.5237   27.1365   30.4893 C   0  0  0  0  0  0  0  0  0  0  0  0
   26.7562   27.2571   28.9804 C   0  0  0  0  0  0  0  0  0  0  0  0
   26.8409   25.9386   28.3293 N   0  0  0  0  0  0  0  0  0  0  0  0
   26.9754   25.8872   26.8926 C   0  0  0  0  0  0  0  0  0  0  0  0
   27.1313   26.9521   26.2356 O   0  0  0  0  0  0  0  0  0  0  0  0
   26.9202   24.6156   26.1552 C   0  0  0  0  0  0  0  0  0  0  0  0
   28.0890   23.8800   25.8510 C   0  0  0  0  0  0  0  0  0  0  0  0
   29.3914   24.3275   26.2553 N   0  0  0  0  0  0  0  0  0  0  0  0
   30.0187   25.4654   26.9569 C   0  0  0  0  0  0  0  0  0  0  0  0
   31.4184   24.9573   26.8719 C   0  0  0  0  0  0  0  0  0  0  0  0
   30.7714   23.8140   26.1644 C   0  0  0  0  0  0  0  0  0  0  0  0
   27.9737   22.6704   25.1483 C   0  0  0  0  0  0  0  0  0  0  0  0
   26.7214   22.1950   24.7537 C   0  0  0  0  0  0  0  0  0  0  0  0
   25.5691   22.9213   25.0588 C   0  0  0  0  0  0  0  0  0  0  0  0
   25.6665   24.1262   25.7577 C   0  0  0  0  0  0  0  0  0  0  0  0
   26.7208   24.7133   29.1393 C   0  0  0  0  0  0  0  0  0  0  0  0
   27.5873   24.8211   30.3998 C   0  0  0  0  0  0  0  0  0  0  0  0
  1  2  1  0
  2  3  2  0
  2  4  1  0
  4  5  2  0
  5  6  1  0
  6  7  2  0
  7  8  1  0
  8  9  2  0
  9 10  1  0
 10 11  2  0
 11 12  1  0
 12 13  2  0
 13 14  1  0
 14 15  1  0
 15 16  1  0
 16 17  1  0
 17 18  1  0
 18 19  2  0
 18 20  1  0
 20 21  1  0
 21 22  1  0
 22 23  1  0
 23 24  1  0
 24 25  1  0
 21 26  2  0
 26 27  1  0
 27 28  2  0
 28 29  1  0
 17 30  1  0
 30 31  1  0
 13  4  1  0
 31 14  1  0
 12  7  1  0
 29 20  2  0
 25 22  1  0
M  END
>  <AAScore>  (1) 
-2.7692269742143227

>  <RootName>  (1) 
./4ZLY/04_DeltaGEst/trajectory_03/rank_01/lead_0379

$$$$
