confid_9
     RDKit          3D

 25 27  0  0  0  0  0  0  0  0999 V2000
   24.5500   26.3900   36.2500 N   0  0  0  0  0  0  0  0  0  0  0  0
   25.6000   26.1300   35.4000 C   0  0  0  0  0  0  0  0  0  0  0  0
   25.4300   25.4300   34.4200 O   0  0  0  0  0  0  0  0  0  0  0  0
   26.9800   26.6300   35.7100 C   0  0  0  0  0  0  0  0  0  0  0  0
   27.3200   26.8200   36.9800 N   0  0  0  0  0  0  0  0  0  0  0  0
   28.4700   27.4000   37.3100 N   0  0  0  0  0  0  0  0  0  0  0  0
   29.4000   27.6300   36.3700 C   0  0  0  0  0  0  0  0  0  0  0  0
   30.6600   28.0500   36.8000 C   0  0  0  0  0  0  0  0  0  0  0  0
   31.5700   28.3600   35.7800 C   0  0  0  0  0  0  0  0  0  0  0  0
   31.3700   28.1000   34.4300 C   0  0  0  0  0  0  0  0  0  0  0  0
   30.1200   27.5900   34.0500 C   0  0  0  0  0  0  0  0  0  0  0  0
   29.1500   27.3400   35.0300 C   0  0  0  0  0  0  0  0  0  0  0  0
   27.8800   26.8900   34.6600 C   0  0  0  0  0  0  0  0  0  0  0  0
   27.4800   26.6100   33.3700 N   0  0  0  0  0  0  0  0  0  0  0  0
   30.9973   28.2698   38.2263 C   0  0  0  0  0  0  0  0  0  0  0  0
   31.0016   27.1717   39.1017 C   0  0  0  0  0  0  0  0  0  0  0  0
   31.3227   27.3395   40.4543 C   0  0  0  0  0  0  0  0  0  0  0  0
   31.3019   25.9538   41.5396 S   0  0  0  0  0  6  0  0  0  0  0  0
   31.8416   24.7456   40.8269 O   0  0  0  0  0  0  0  0  0  0  0  0
   32.1606   26.2285   42.7423 O   0  0  0  0  0  0  0  0  0  0  0  0
   29.6315   25.6424   42.0636 C   0  0  0  0  0  0  0  0  0  0  0  0
   31.6306   28.6159   40.9397 C   0  0  0  0  0  0  0  0  0  0  0  0
   31.6247   29.7150   40.0782 C   0  0  0  0  0  0  0  0  0  0  0  0
   31.3099   29.5526   38.7244 C   0  0  0  0  0  0  0  0  0  0  0  0
   31.2596   30.9834   37.6993 Cl  0  0  0  0  0  0  0  0  0  0  0  0
  1  2  1  0
  2  3  2  0
  2  4  1  0
  4  5  2  0
  5  6  1  0
  6  7  2  0
  7  8  1  0
  8  9  2  0
  9 10  1  0
 10 11  2  0
 11 12  1  0
 12 13  2  0
 13 14  1  0
  8 15  1  0
 15 16  2  0
 16 17  1  0
 17 18  1  0
 18 19  2  0
 18 20  2  0
 18 21  1  0
 17 22  2  0
 22 23  1  0
 23 24  2  0
 24 25  1  0
 13  4  1  0
 24 15  1  0
 12  7  1  0
M  END
>  <AAScore>  (1) 
14.443169983388293

>  <RootName>  (1) 
./4ZLY/04_DeltaGEst/trajectory_01/rank_01/lead_0274

$$$$
