confid_13
     RDKit          3D

 27 30  0  0  0  0  0  0  0  0999 V2000
   24.5500   26.3900   36.2500 N   0  0  0  0  0  0  0  0  0  0  0  0
   25.6000   26.1300   35.4000 C   0  0  0  0  0  0  0  0  0  0  0  0
   25.4300   25.4300   34.4200 O   0  0  0  0  0  0  0  0  0  0  0  0
   26.9800   26.6300   35.7100 C   0  0  0  0  0  0  0  0  0  0  0  0
   27.3200   26.8200   36.9800 N   0  0  0  0  0  0  0  0  0  0  0  0
   28.4700   27.4000   37.3100 N   0  0  0  0  0  0  0  0  0  0  0  0
   29.4000   27.6300   36.3700 C   0  0  0  0  0  0  0  0  0  0  0  0
   30.6600   28.0500   36.8000 C   0  0  0  0  0  0  0  0  0  0  0  0
   31.5700   28.3600   35.7800 C   0  0  0  0  0  0  0  0  0  0  0  0
   31.3700   28.1000   34.4300 C   0  0  0  0  0  0  0  0  0  0  0  0
   30.1200   27.5900   34.0500 C   0  0  0  0  0  0  0  0  0  0  0  0
   29.1500   27.3400   35.0300 C   0  0  0  0  0  0  0  0  0  0  0  0
   27.8800   26.8900   34.6600 C   0  0  0  0  0  0  0  0  0  0  0  0
   27.4800   26.6100   33.3700 N   0  0  0  0  0  0  0  0  0  0  0  0
   30.9657   28.3312   38.1746 N   0  0  0  0  0  0  0  0  0  0  0  0
   31.5991   27.3058   39.0061 C   0  0  0  0  0  0  0  0  0  0  0  0
   30.5938   26.6913   39.9821 C   0  0  0  0  0  0  0  0  0  0  0  0
   30.0550   27.7041   40.9001 N   0  0  0  0  0  0  0  0  0  0  0  0
   29.0029   28.5808   40.4548 C   0  0  0  0  0  0  0  0  0  0  0  0
   27.7336   28.5063   41.0498 C   0  0  0  0  0  0  0  0  0  0  0  0
   26.6963   29.3314   40.6102 C   0  0  0  0  0  0  0  0  0  0  0  0
   26.9161   30.2406   39.5751 C   0  0  0  0  0  0  0  0  0  0  0  0
   28.1749   30.3302   38.9776 C   0  0  0  0  0  0  0  0  0  0  0  0
   29.2271   29.5048   39.4098 C   0  0  0  0  0  0  0  0  0  0  0  0
   30.5807   29.6157   38.7621 C   0  0  0  0  0  0  0  0  0  0  0  0
   30.5968   27.8401   42.2580 C   0  0  0  0  0  0  0  0  0  0  0  0
   30.1229   26.7070   43.1659 C   0  0  0  0  0  0  0  0  0  0  0  0
  1  2  1  0
  2  3  2  0
  2  4  1  0
  4  5  2  0
  5  6  1  0
  6  7  2  0
  7  8  1  0
  8  9  2  0
  9 10  1  0
 10 11  2  0
 11 12  1  0
 12 13  2  0
 13 14  1  0
  8 15  1  0
 15 16  1  0
 16 17  1  0
 17 18  1  0
 18 19  1  0
 19 20  2  0
 20 21  1  0
 21 22  2  0
 22 23  1  0
 23 24  2  0
 24 25  1  0
 18 26  1  0
 26 27  1  0
 13  4  1  0
 25 15  1  0
 12  7  1  0
 24 19  1  0
M  END
>  <AAScore>  (1) 
7.924782998261924

>  <RootName>  (1) 
./4ZLY/04_DeltaGEst/trajectory_01/rank_01/lead_0277

$$$$
