confid_8
     RDKit          3D

 28 31  0  0  0  0  0  0  0  0999 V2000
   24.6900   26.1200   35.5300 N   0  0  0  0  0  0  0  0  0  0  0  0
   25.6600   25.6700   34.6600 C   0  0  0  0  0  0  0  0  0  0  0  0
   25.2400   25.0100   33.7200 O   0  0  0  0  0  0  0  0  0  0  0  0
   27.0300   26.2200   34.8800 C   0  0  0  0  0  0  0  0  0  0  0  0
   27.3500   26.7300   36.0700 N   0  0  0  0  0  0  0  0  0  0  0  0
   28.5700   27.1800   36.3300 N   0  0  0  0  0  0  0  0  0  0  0  0
   29.5300   27.1100   35.3900 C   0  0  0  0  0  0  0  0  0  0  0  0
   30.8300   27.5700   35.6500 C   0  0  0  0  0  0  0  0  0  0  0  0
   31.8500   27.5400   34.6900 C   0  0  0  0  0  0  0  0  0  0  0  0
   31.5100   27.1200   33.4000 C   0  0  0  0  0  0  0  0  0  0  0  0
   30.2200   26.6300   33.1100 C   0  0  0  0  0  0  0  0  0  0  0  0
   29.2400   26.6600   34.1000 C   0  0  0  0  0  0  0  0  0  0  0  0
   27.9300   26.2600   33.8100 C   0  0  0  0  0  0  0  0  0  0  0  0
   27.5200   25.7100   32.6100 N   0  0  0  0  0  0  0  0  0  0  0  0
   23.2958   26.2751   35.2009 C   0  0  0  0  0  0  0  0  0  0  0  0
   22.8572   26.2834   33.9826 N   0  0  0  0  0  0  0  0  0  0  0  0
   21.4551   26.4854   34.0490 C   0  0  0  0  0  0  0  0  0  0  0  0
   21.0336   26.6048   35.3005 C   0  0  0  0  0  0  0  0  0  0  0  0
   19.5819   26.7581   35.6649 C   0  0  0  0  0  0  0  0  0  0  0  0
   19.3088   26.6899   37.1679 C   0  0  0  0  0  0  0  0  0  0  0  0
   19.6595   25.3494   37.6978 N   0  0  0  0  0  0  0  0  0  0  0  0
   18.7083   24.9564   38.7512 C   0  0  0  0  0  0  0  0  0  0  0  0
   21.0348   25.3259   38.2437 C   0  0  0  0  0  0  0  0  0  0  0  0
   22.0958   25.2360   37.1339 C   0  0  0  0  0  0  0  0  0  0  0  0
   22.2153   26.4918   36.2305 C   0  0  1  0  0  0  0  0  0  0  0  0
   22.5105   27.7800   36.9943 C   0  0  0  0  0  0  0  0  0  0  0  0
   23.1441   27.7314   38.0401 O   0  0  0  0  0  0  0  0  0  0  0  0
   22.1585   29.1312   36.4338 C   0  0  0  0  0  0  0  0  0  0  0  0
  1  2  1  0
  2  3  2  0
  2  4  1  0
  4  5  2  0
  5  6  1  0
  6  7  2  0
  7  8  1  0
  8  9  2  0
  9 10  1  0
 10 11  2  0
 11 12  1  0
 12 13  2  0
 13 14  1  0
  1 15  1  0
 15 16  2  0
 16 17  1  0
 17 18  2  0
 18 19  1  0
 19 20  1  0
 20 21  1  0
 21 22  1  0
 21 23  1  0
 23 24  1  0
 24 25  1  0
 25 26  1  1
 26 27  2  0
 26 28  1  0
 13  4  1  0
 25 15  1  0
 12  7  1  0
 25 18  1  0
M  END
>  <AAScore>  (1) 
166.7195851925002

>  <RootName>  (1) 
./4ZLY/04_DeltaGEst/trajectory_02/rank_00/lead_0470

$$$$
