confid_8
     RDKit          3D

 29 32  0  0  0  0  0  0  0  0999 V2000
   25.3300   26.2600   34.7600 N   0  0  0  0  0  0  0  0  0  0  0  0
   26.1200   25.9200   33.6900 C   0  0  0  0  0  0  0  0  0  0  0  0
   25.6300   25.1100   32.9400 O   0  0  0  0  0  0  0  0  0  0  0  0
   27.5200   26.3800   33.4600 C   0  0  0  0  0  0  0  0  0  0  0  0
   28.1600   26.6300   34.6100 N   0  0  0  0  0  0  0  0  0  0  0  0
   29.4800   26.8500   34.5700 N   0  0  0  0  0  0  0  0  0  0  0  0
   30.1900   26.7800   33.4400 C   0  0  0  0  0  0  0  0  0  0  0  0
   31.5600   27.0500   33.5000 C   0  0  0  0  0  0  0  0  0  0  0  0
   32.2700   27.2400   32.3100 C   0  0  0  0  0  0  0  0  0  0  0  0
   31.6100   27.2500   31.0800 C   0  0  0  0  0  0  0  0  0  0  0  0
   30.2700   26.8700   31.0600 C   0  0  0  0  0  0  0  0  0  0  0  0
   29.5100   26.6900   32.2300 C   0  0  0  0  0  0  0  0  0  0  0  0
   28.1400   26.4100   32.2000 C   0  0  0  0  0  0  0  0  0  0  0  0
   27.4300   26.1300   31.0500 N   0  0  0  0  0  0  0  0  0  0  0  0
   23.9615   25.8561   34.9873 C   0  0  0  0  0  0  0  0  0  0  0  0
   23.2683   25.1526   34.0505 N   0  0  0  0  0  0  0  0  0  0  0  0
   21.9806   24.7643   34.2388 C   0  0  0  0  0  0  0  0  0  0  0  0
   21.3043   25.0889   35.4251 C   0  0  0  0  0  0  0  0  0  0  0  0
   19.9080   24.5411   35.6601 C   0  0  0  0  0  0  0  0  0  0  0  0
   18.9038   25.5725   35.9639 N   0  0  0  0  0  0  0  0  0  0  0  0
   17.5482   25.1372   36.2937 C   0  0  0  0  0  0  0  0  0  0  0  0
   19.0916   26.9429   35.5825 C   0  0  0  0  0  0  0  0  0  0  0  0
   18.5282   27.3853   34.5464 O   0  0  0  0  0  0  0  0  0  0  0  0
   19.9145   27.8702   36.4293 C   0  0  0  0  0  0  0  0  0  0  0  0
   20.4129   27.2020   37.6342 N   0  0  0  0  0  0  0  0  0  0  0  0
   21.3277   26.2743   37.6510 C   0  0  0  0  0  0  0  0  0  0  0  0
   21.9946   25.8320   36.4074 C   0  0  0  0  0  0  0  0  0  0  0  0
   23.3255   26.2080   36.1841 C   0  0  0  0  0  0  0  0  0  0  0  0
   21.8031   25.7470   38.9671 C   0  0  0  0  0  0  0  0  0  0  0  0
  1  2  1  0
  2  3  2  0
  2  4  1  0
  4  5  2  0
  5  6  1  0
  6  7  2  0
  7  8  1  0
  8  9  2  0
  9 10  1  0
 10 11  2  0
 11 12  1  0
 12 13  2  0
 13 14  1  0
  1 15  1  0
 15 16  2  0
 16 17  1  0
 17 18  2  0
 18 19  1  0
 19 20  1  0
 20 21  1  0
 20 22  1  0
 22 23  2  0
 22 24  1  0
 24 25  1  0
 25 26  2  0
 26 27  1  0
 27 28  2  0
 26 29  1  0
 13  4  1  0
 28 15  1  0
 12  7  1  0
 27 18  1  0
M  END
>  <AAScore>  (1) 
5635.209630552595

>  <RootName>  (1) 
./4ZLY/04_DeltaGEst/trajectory_03/rank_00/lead_0095

$$$$
