confid_6
     RDKit          3D

 32 34  0  0  0  0  0  0  0  0999 V2000
   24.5500   26.3900   36.2500 N   0  0  0  0  0  0  0  0  0  0  0  0
   25.6000   26.1300   35.4000 C   0  0  0  0  0  0  0  0  0  0  0  0
   25.4300   25.4300   34.4200 O   0  0  0  0  0  0  0  0  0  0  0  0
   26.9800   26.6300   35.7100 C   0  0  0  0  0  0  0  0  0  0  0  0
   27.3200   26.8200   36.9800 N   0  0  0  0  0  0  0  0  0  0  0  0
   28.4700   27.4000   37.3100 N   0  0  0  0  0  0  0  0  0  0  0  0
   29.4000   27.6300   36.3700 C   0  0  0  0  0  0  0  0  0  0  0  0
   30.6600   28.0500   36.8000 C   0  0  0  0  0  0  0  0  0  0  0  0
   31.5700   28.3600   35.7800 C   0  0  0  0  0  0  0  0  0  0  0  0
   31.3700   28.1000   34.4300 C   0  0  0  0  0  0  0  0  0  0  0  0
   30.1200   27.5900   34.0500 C   0  0  0  0  0  0  0  0  0  0  0  0
   29.1500   27.3400   35.0300 C   0  0  0  0  0  0  0  0  0  0  0  0
   27.8800   26.8900   34.6600 C   0  0  0  0  0  0  0  0  0  0  0  0
   27.4800   26.6100   33.3700 N   0  0  0  0  0  0  0  0  0  0  0  0
   23.2556   25.6961   36.1715 C   0  0  1  0  0  0  0  0  0  0  0  0
   22.5375   25.7565   37.5465 C   0  0  0  0  0  0  0  0  0  0  0  0
   22.0459   27.1626   37.9760 C   0  0  0  0  0  0  0  0  0  0  0  0
   20.6153   27.1404   38.3283 N   0  0  0  0  0  0  0  0  0  0  0  0
   19.6116   27.8608   37.5729 C   0  0  0  0  0  0  0  0  0  0  0  0
   18.4152   27.4609   37.5990 O   0  0  0  0  0  0  0  0  0  0  0  0
   19.9233   29.1353   36.8353 C   0  0  0  0  0  0  0  0  0  0  0  0
   20.4215   28.8740   35.4623 N   0  0  0  0  0  0  0  0  0  0  0  0
   21.3945   29.9095   35.0239 C   0  0  0  0  0  0  0  0  0  0  0  0
   20.8474   31.3527   35.0223 C   0  0  0  0  0  0  0  0  0  0  0  0
   19.8284   31.4926   34.0555 O   0  0  0  0  0  0  0  0  0  0  0  0
   19.3599   32.8221   34.0498 C   0  0  0  0  0  0  0  0  0  0  0  0
   19.3453   28.6598   34.4607 C   0  0  0  0  0  0  0  0  0  0  0  0
   18.9994   27.1734   34.2707 C   0  0  0  0  0  0  0  0  0  0  0  0
   20.1772   26.3125   33.7616 C   0  0  0  0  0  0  0  0  0  0  0  0
   21.0044   25.6732   34.8984 C   0  0  0  0  0  0  0  0  0  0  0  0
   22.4270   26.2517   34.9864 C   0  0  0  0  0  0  0  0  0  0  0  0
   20.1797   26.3377   39.4757 C   0  0  0  0  0  0  0  0  0  0  0  0
  1  2  1  0
  2  3  2  0
  2  4  1  0
  4  5  2  0
  5  6  1  0
  6  7  2  0
  7  8  1  0
  8  9  2  0
  9 10  1  0
 10 11  2  0
 11 12  1  0
 12 13  2  0
 13 14  1  0
 15  1  1  1
 15 16  1  0
 16 17  1  0
 17 18  1  0
 18 19  1  0
 19 20  2  0
 19 21  1  0
 21 22  1  0
 22 23  1  0
 23 24  1  0
 24 25  1  0
 25 26  1  0
 22 27  1  0
 27 28  1  0
 28 29  1  0
 29 30  1  0
 30 31  1  0
 18 32  1  0
 13  4  1  0
 31 15  1  0
 12  7  1  0
M  END
>  <AAScore>  (1) 
1650.38967291182

>  <RootName>  (1) 
./4ZLY/04_DeltaGEst/trajectory_01/rank_00/lead_0016

$$$$
