confid_4
     RDKit          3D

 28 31  0  0  0  0  0  0  0  0999 V2000
   24.5500   26.3900   36.2500 N   0  0  0  0  0  0  0  0  0  0  0  0
   25.6000   26.1300   35.4000 C   0  0  0  0  0  0  0  0  0  0  0  0
   25.4300   25.4300   34.4200 O   0  0  0  0  0  0  0  0  0  0  0  0
   26.9800   26.6300   35.7100 C   0  0  0  0  0  0  0  0  0  0  0  0
   27.3200   26.8200   36.9800 N   0  0  0  0  0  0  0  0  0  0  0  0
   28.4700   27.4000   37.3100 N   0  0  0  0  0  0  0  0  0  0  0  0
   29.4000   27.6300   36.3700 C   0  0  0  0  0  0  0  0  0  0  0  0
   30.6600   28.0500   36.8000 C   0  0  0  0  0  0  0  0  0  0  0  0
   31.5700   28.3600   35.7800 C   0  0  0  0  0  0  0  0  0  0  0  0
   31.3700   28.1000   34.4300 C   0  0  0  0  0  0  0  0  0  0  0  0
   30.1200   27.5900   34.0500 C   0  0  0  0  0  0  0  0  0  0  0  0
   29.1500   27.3400   35.0300 C   0  0  0  0  0  0  0  0  0  0  0  0
   27.8800   26.8900   34.6600 C   0  0  0  0  0  0  0  0  0  0  0  0
   27.4800   26.6100   33.3700 N   0  0  0  0  0  0  0  0  0  0  0  0
   23.1634   26.2033   35.9179 C   0  0  0  0  0  0  0  0  0  0  0  0
   22.2851   25.8951   36.9103 N   0  0  0  0  0  0  0  0  0  0  0  0
   20.9565   25.7331   36.6782 C   0  0  0  0  0  0  0  0  0  0  0  0
   20.4442   25.8808   35.3831 C   0  0  0  0  0  0  0  0  0  0  0  0
   18.9659   25.7552   35.1238 C   0  0  0  0  0  0  0  0  0  0  0  0
   18.7109   25.2444   33.7697 N   0  0  0  0  0  0  0  0  0  0  0  0
   19.5576   25.6680   32.6817 C   0  0  0  0  0  0  0  0  0  0  0  0
   19.2576   25.3853   31.4900 O   0  0  0  0  0  0  0  0  0  0  0  0
   20.7881   26.4845   32.9524 C   0  0  0  0  0  0  0  0  0  0  0  0
   21.3197   26.2260   34.3383 C   0  0  0  0  0  0  0  0  0  0  0  0
   22.6828   26.4035   34.6123 C   0  0  0  0  0  0  0  0  0  0  0  0
   17.4878   24.4760   33.5053 C   0  0  0  0  0  0  0  0  0  0  0  0
   16.3378   25.4169   33.1335 C   0  0  0  0  0  0  0  0  0  0  0  0
   15.0543   24.6394   32.8582 C   0  0  0  0  0  0  0  0  0  0  0  0
  1  2  1  0
  2  3  2  0
  2  4  1  0
  4  5  2  0
  5  6  1  0
  6  7  2  0
  7  8  1  0
  8  9  2  0
  9 10  1  0
 10 11  2  0
 11 12  1  0
 12 13  2  0
 13 14  1  0
  1 15  1  0
 15 16  2  0
 16 17  1  0
 17 18  2  0
 18 19  1  0
 19 20  1  0
 20 21  1  0
 21 22  2  0
 21 23  1  0
 23 24  1  0
 24 25  2  0
 20 26  1  0
 26 27  1  0
 27 28  1  0
 13  4  1  0
 25 15  1  0
 12  7  1  0
 24 18  1  0
M  END
>  <AAScore>  (1) 
1327.9253410675742

>  <RootName>  (1) 
./4ZLY/04_DeltaGEst/trajectory_01/rank_00/lead_0461

$$$$
