confid_19
     RDKit          3D

 28 31  0  0  0  0  0  0  0  0999 V2000
   24.5700   26.8800   35.5900 N   0  0  0  0  0  0  0  0  0  0  0  0
   25.5000   26.4000   34.6900 C   0  0  0  0  0  0  0  0  0  0  0  0
   25.1700   25.5200   33.9100 O   0  0  0  0  0  0  0  0  0  0  0  0
   26.8400   27.0200   34.7400 C   0  0  0  0  0  0  0  0  0  0  0  0
   27.3800   27.2800   35.9400 N   0  0  0  0  0  0  0  0  0  0  0  0
   28.6200   27.7400   36.0300 N   0  0  0  0  0  0  0  0  0  0  0  0
   29.3800   28.0000   34.9600 C   0  0  0  0  0  0  0  0  0  0  0  0
   30.6700   28.5000   35.1300 C   0  0  0  0  0  0  0  0  0  0  0  0
   31.5400   28.6100   34.0300 C   0  0  0  0  0  0  0  0  0  0  0  0
   31.0900   28.2200   32.7700 C   0  0  0  0  0  0  0  0  0  0  0  0
   29.8000   27.7000   32.6000 C   0  0  0  0  0  0  0  0  0  0  0  0
   28.9600   27.5500   33.7100 C   0  0  0  0  0  0  0  0  0  0  0  0
   27.6600   27.0300   33.5900 C   0  0  0  0  0  0  0  0  0  0  0  0
   27.1600   26.7400   32.3400 N   0  0  0  0  0  0  0  0  0  0  0  0
   23.1740   26.5418   35.5597 C   0  0  0  0  0  0  0  0  0  0  0  0
   22.6630   26.0810   36.6755 N   0  0  0  0  0  0  0  0  0  0  0  0
   21.3233   25.7214   37.0538 C   0  0  0  0  0  0  0  0  0  0  0  0
   20.2584   26.5257   36.8998 C   0  0  0  0  0  0  0  0  0  0  0  0
   20.3599   27.7848   36.1155 C   0  0  0  0  0  0  0  0  0  0  0  0
   19.9961   27.4493   34.7327 N   0  0  0  0  0  0  0  0  0  0  0  0
   18.5818   26.9697   34.6480 C   0  0  0  0  0  0  0  0  0  0  0  0
   17.9466   26.4451   35.9823 C   0  0  0  0  0  0  0  0  0  0  0  0
   18.9340   25.9746   36.9763 N   0  0  0  0  0  0  0  0  0  0  0  0
   18.5034   25.2483   38.1503 C   0  0  0  0  0  0  0  0  0  0  0  0
   19.2425   25.2033   39.1722 O   0  0  0  0  0  0  0  0  0  0  0  0
   17.1691   24.5673   38.2012 C   0  0  0  0  0  0  0  0  0  0  0  0
   20.9223   26.4479   34.1369 C   0  0  0  0  0  0  0  0  0  0  0  0
   22.4077   26.8373   34.2606 C   0  0  0  0  0  0  0  0  0  0  0  0
  1  2  1  0
  2  3  2  0
  2  4  1  0
  4  5  2  0
  5  6  1  0
  6  7  2  0
  7  8  1  0
  8  9  2  0
  9 10  1  0
 10 11  2  0
 11 12  1  0
 12 13  2  0
 13 14  1  0
  1 15  1  0
 15 16  2  0
 16 17  1  0
 17 18  2  0
 18 19  1  0
 19 20  1  0
 20 21  1  0
 21 22  1  0
 22 23  1  0
 23 24  1  0
 24 25  2  0
 24 26  1  0
 20 27  1  0
 27 28  1  0
 13  4  1  0
 28 15  1  0
 12  7  1  0
 23 18  1  0
M  END
>  <AAScore>  (1) 
303.15692640866143

>  <RootName>  (1) 
./4ZLY/04_DeltaGEst/trajectory_05/rank_00/lead_0227

$$$$
