confid_0
     RDKit          3D

 30 33  0  0  0  0  0  0  0  0999 V2000
   24.2000   26.2400   35.6900 N   0  0  0  0  0  0  0  0  0  0  0  0
   24.8500   26.2800   34.4800 C   0  0  0  0  0  0  0  0  0  0  0  0
   24.3100   25.7400   33.5400 O   0  0  0  0  0  0  0  0  0  0  0  0
   26.1800   26.9700   34.4700 C   0  0  0  0  0  0  0  0  0  0  0  0
   26.6500   27.6000   35.5500 N   0  0  0  0  0  0  0  0  0  0  0  0
   27.7900   28.2700   35.6200 N   0  0  0  0  0  0  0  0  0  0  0  0
   28.5400   28.3000   34.5100 C   0  0  0  0  0  0  0  0  0  0  0  0
   29.7700   28.9400   34.5600 C   0  0  0  0  0  0  0  0  0  0  0  0
   30.7000   28.8900   33.5000 C   0  0  0  0  0  0  0  0  0  0  0  0
   30.3700   28.1400   32.3700 C   0  0  0  0  0  0  0  0  0  0  0  0
   29.1200   27.5200   32.2800 C   0  0  0  0  0  0  0  0  0  0  0  0
   28.2100   27.6100   33.3300 C   0  0  0  0  0  0  0  0  0  0  0  0
   26.9700   26.9700   33.3100 C   0  0  0  0  0  0  0  0  0  0  0  0
   26.5300   26.2400   32.2200 N   0  0  0  0  0  0  0  0  0  0  0  0
   22.7742   26.3659   35.8331 C   0  0  0  0  0  0  0  0  0  0  0  0
   22.0735   26.8770   34.8588 N   0  0  0  0  0  0  0  0  0  0  0  0
   20.6649   27.1168   34.9042 C   0  0  0  0  0  0  0  0  0  0  0  0
   19.8191   26.4973   34.0681 C   0  0  0  0  0  0  0  0  0  0  0  0
   18.3344   26.7844   34.1426 C   0  0  0  0  0  0  0  0  0  0  0  0
   17.7379   27.0383   32.8058 N   0  0  0  0  0  0  0  0  0  0  0  0
   18.3870   26.3218   31.6751 C   0  0  0  0  0  0  0  0  0  0  0  0
   19.1354   25.0595   32.1291 C   0  0  0  0  0  0  0  0  0  0  0  0
   20.2906   25.4470   33.0739 C   0  0  2  0  0  0  0  0  0  0  0  0
   20.9301   24.1871   33.7278 C   0  0  0  0  0  0  0  0  0  0  0  0
   20.1674   23.5960   34.9363 C   0  0  0  0  0  0  0  0  0  0  0  0
   20.2524   24.4767   36.1248 N   0  0  0  0  0  0  0  0  0  0  0  0
   19.1427   24.2008   37.0534 C   0  0  0  0  0  0  0  0  0  0  0  0
   21.5603   24.3895   36.8205 C   0  0  0  0  0  0  0  0  0  0  0  0
   22.1196   25.7999   37.0770 C   0  0  0  0  0  0  0  0  0  0  0  0
   17.6543   28.4816   32.5275 C   0  0  0  0  0  0  0  0  0  0  0  0
  1  2  1  0
  2  3  2  0
  2  4  1  0
  4  5  2  0
  5  6  1  0
  6  7  2  0
  7  8  1  0
  8  9  2  0
  9 10  1  0
 10 11  2  0
 11 12  1  0
 12 13  2  0
 13 14  1  0
  1 15  1  0
 15 16  2  0
 16 17  1  0
 17 18  2  0
 18 19  1  0
 19 20  1  0
 20 21  1  0
 21 22  1  0
 23 22  1  1
 23 24  1  0
 24 25  1  0
 25 26  1  0
 26 27  1  0
 26 28  1  0
 28 29  1  0
 20 30  1  0
 13  4  1  0
 29 15  1  0
 12  7  1  0
 23 18  1  0
M  END
>  <AAScore>  (1) 
4579.816459458206

>  <RootName>  (1) 
./4ZLY/04_DeltaGEst/trajectory_04/rank_00/lead_0318

$$$$
