confid_7
     RDKit          3D

 29 32  0  0  0  0  0  0  0  0999 V2000
   24.5700   26.8800   35.5900 N   0  0  0  0  0  0  0  0  0  0  0  0
   25.5000   26.4000   34.6900 C   0  0  0  0  0  0  0  0  0  0  0  0
   25.1700   25.5200   33.9100 O   0  0  0  0  0  0  0  0  0  0  0  0
   26.8400   27.0200   34.7400 C   0  0  0  0  0  0  0  0  0  0  0  0
   27.3800   27.2800   35.9400 N   0  0  0  0  0  0  0  0  0  0  0  0
   28.6200   27.7400   36.0300 N   0  0  0  0  0  0  0  0  0  0  0  0
   29.3800   28.0000   34.9600 C   0  0  0  0  0  0  0  0  0  0  0  0
   30.6700   28.5000   35.1300 C   0  0  0  0  0  0  0  0  0  0  0  0
   31.5400   28.6100   34.0300 C   0  0  0  0  0  0  0  0  0  0  0  0
   31.0900   28.2200   32.7700 C   0  0  0  0  0  0  0  0  0  0  0  0
   29.8000   27.7000   32.6000 C   0  0  0  0  0  0  0  0  0  0  0  0
   28.9600   27.5500   33.7100 C   0  0  0  0  0  0  0  0  0  0  0  0
   27.6600   27.0300   33.5900 C   0  0  0  0  0  0  0  0  0  0  0  0
   27.1600   26.7400   32.3400 N   0  0  0  0  0  0  0  0  0  0  0  0
   23.2127   26.4070   35.6449 C   0  0  0  0  0  0  0  0  0  0  0  0
   22.5264   26.2641   34.4833 N   0  0  0  0  0  0  0  0  0  0  0  0
   21.2283   25.8899   34.4441 C   0  0  0  0  0  0  0  0  0  0  0  0
   20.5207   25.6399   35.6245 C   0  0  0  0  0  0  0  0  0  0  0  0
   19.0359   25.3573   35.5140 C   0  0  0  0  0  0  0  0  0  0  0  0
   18.2699   26.6162   35.6847 N   0  0  0  0  0  0  0  0  0  0  0  0
   18.0343   27.2730   34.3870 C   0  0  0  0  0  0  0  0  0  0  0  0
   16.9938   26.4020   36.4044 C   0  0  0  0  0  0  0  0  0  0  0  0
   17.1673   26.6937   37.8986 C   0  0  0  0  0  0  0  0  0  0  0  0
   18.1261   25.8277   38.4734 O   0  0  0  0  0  0  0  0  0  0  0  0
   19.4085   26.4287   38.5464 C   0  0  0  0  0  0  0  0  0  0  0  0
   20.4761   25.3882   38.1700 C   0  0  0  0  0  0  0  0  0  0  0  0
   21.2031   25.7327   36.8705 C   0  0  0  0  0  0  0  0  0  0  0  0
   22.5728   26.1335   36.8787 C   0  0  0  0  0  0  0  0  0  0  0  0
   23.3495   26.2114   38.1773 C   0  0  0  0  0  0  0  0  0  0  0  0
  1  2  1  0
  2  3  2  0
  2  4  1  0
  4  5  2  0
  5  6  1  0
  6  7  2  0
  7  8  1  0
  8  9  2  0
  9 10  1  0
 10 11  2  0
 11 12  1  0
 12 13  2  0
 13 14  1  0
  1 15  1  0
 15 16  2  0
 16 17  1  0
 17 18  2  0
 18 19  1  0
 19 20  1  0
 20 21  1  0
 20 22  1  0
 22 23  1  0
 23 24  1  0
 24 25  1  0
 25 26  1  0
 26 27  1  0
 27 28  2  0
 28 29  1  0
 13  4  1  0
 28 15  1  0
 12  7  1  0
 27 18  1  0
M  END
>  <AAScore>  (1) 
31271.325278346794

>  <RootName>  (1) 
./4ZLY/04_DeltaGEst/trajectory_05/rank_00/lead_0051

$$$$
