confid_1
     RDKit          3D

 30 32  0  0  0  0  0  0  0  0999 V2000
   24.5500   26.3900   36.2500 N   0  0  0  0  0  0  0  0  0  0  0  0
   25.6000   26.1300   35.4000 C   0  0  0  0  0  0  0  0  0  0  0  0
   25.4300   25.4300   34.4200 O   0  0  0  0  0  0  0  0  0  0  0  0
   26.9800   26.6300   35.7100 C   0  0  0  0  0  0  0  0  0  0  0  0
   27.3200   26.8200   36.9800 N   0  0  0  0  0  0  0  0  0  0  0  0
   28.4700   27.4000   37.3100 N   0  0  0  0  0  0  0  0  0  0  0  0
   29.4000   27.6300   36.3700 C   0  0  0  0  0  0  0  0  0  0  0  0
   30.6600   28.0500   36.8000 C   0  0  0  0  0  0  0  0  0  0  0  0
   31.5700   28.3600   35.7800 C   0  0  0  0  0  0  0  0  0  0  0  0
   31.3700   28.1000   34.4300 C   0  0  0  0  0  0  0  0  0  0  0  0
   30.1200   27.5900   34.0500 C   0  0  0  0  0  0  0  0  0  0  0  0
   29.1500   27.3400   35.0300 C   0  0  0  0  0  0  0  0  0  0  0  0
   27.8800   26.8900   34.6600 C   0  0  0  0  0  0  0  0  0  0  0  0
   27.4800   26.6100   33.3700 N   0  0  0  0  0  0  0  0  0  0  0  0
   23.2066   25.8282   36.0516 C   0  0  0  0  0  0  0  0  0  0  0  0
   22.4788   26.5528   34.8870 C   0  0  0  0  0  0  0  0  0  0  0  0
   21.0196   26.9376   35.1979 C   0  0  0  0  0  0  0  0  0  0  0  0
   20.3468   25.8895   35.9773 N   0  0  0  0  0  0  0  0  0  0  0  0
   18.9600   25.6020   35.7205 C   0  0  0  0  0  0  0  0  0  0  0  0
   18.1836   26.5305   35.3653 O   0  0  0  0  0  0  0  0  0  0  0  0
   18.4300   24.1933   35.7691 C   0  0  0  0  0  0  0  0  0  0  0  0
   18.1957   23.6899   34.3997 N   0  0  0  0  0  0  0  0  0  0  0  0
   19.4717   23.3776   33.7086 C   0  0  0  0  0  0  0  0  0  0  0  0
   19.3055   23.5323   32.1868 C   0  0  0  0  0  0  0  0  0  0  0  0
   20.6552   23.6815   31.4438 C   0  0  0  0  0  0  0  0  0  0  0  0
   20.4081   23.9788   29.9568 C   0  0  0  0  0  0  0  0  0  0  0  0
   21.5337   22.4291   31.5919 C   0  0  0  0  0  0  0  0  0  0  0  0
   17.3305   22.4976   34.4503 C   0  0  0  0  0  0  0  0  0  0  0  0
   21.0116   25.2923   37.1462 C   0  0  0  0  0  0  0  0  0  0  0  0
   22.4055   25.8884   37.3628 C   0  0  0  0  0  0  0  0  0  0  0  0
  1  2  1  0
  2  3  2  0
  2  4  1  0
  4  5  2  0
  5  6  1  0
  6  7  2  0
  7  8  1  0
  8  9  2  0
  9 10  1  0
 10 11  2  0
 11 12  1  0
 12 13  2  0
 13 14  1  0
  1 15  1  0
 15 16  1  0
 16 17  1  0
 17 18  1  0
 18 19  1  0
 19 20  2  0
 19 21  1  0
 21 22  1  0
 22 23  1  0
 23 24  1  0
 24 25  1  0
 25 26  1  0
 25 27  1  0
 22 28  1  0
 18 29  1  0
 29 30  1  0
 13  4  1  0
 30 15  1  0
 12  7  1  0
M  END
>  <AAScore>  (1) 
2235.287301808015

>  <RootName>  (1) 
./4ZLY/04_DeltaGEst/trajectory_01/rank_00/lead_0100

$$$$
