confid_18
     RDKit          3D

 27 30  0  0  0  0  0  0  0  0999 V2000
   24.5500   26.3900   36.2500 N   0  0  0  0  0  0  0  0  0  0  0  0
   25.6000   26.1300   35.4000 C   0  0  0  0  0  0  0  0  0  0  0  0
   25.4300   25.4300   34.4200 O   0  0  0  0  0  0  0  0  0  0  0  0
   26.9800   26.6300   35.7100 C   0  0  0  0  0  0  0  0  0  0  0  0
   27.3200   26.8200   36.9800 N   0  0  0  0  0  0  0  0  0  0  0  0
   28.4700   27.4000   37.3100 N   0  0  0  0  0  0  0  0  0  0  0  0
   29.4000   27.6300   36.3700 C   0  0  0  0  0  0  0  0  0  0  0  0
   30.6600   28.0500   36.8000 C   0  0  0  0  0  0  0  0  0  0  0  0
   31.5700   28.3600   35.7800 C   0  0  0  0  0  0  0  0  0  0  0  0
   31.3700   28.1000   34.4300 C   0  0  0  0  0  0  0  0  0  0  0  0
   30.1200   27.5900   34.0500 C   0  0  0  0  0  0  0  0  0  0  0  0
   29.1500   27.3400   35.0300 C   0  0  0  0  0  0  0  0  0  0  0  0
   27.8800   26.8900   34.6600 C   0  0  0  0  0  0  0  0  0  0  0  0
   27.4800   26.6100   33.3700 N   0  0  0  0  0  0  0  0  0  0  0  0
   23.2781   25.7268   36.1882 C   0  0  0  0  0  0  0  0  0  0  0  0
   22.1966   26.4583   36.2182 N   0  0  0  0  0  0  0  0  0  0  0  0
   20.8811   25.9068   36.3099 C   0  0  0  0  0  0  0  0  0  0  0  0
   20.5618   25.2007   37.3841 C   0  0  0  0  0  0  0  0  0  0  0  0
   19.5572   24.1928   37.8534 C   0  0  0  0  0  0  0  0  0  0  0  0
   20.1981   23.9354   39.0650 O   0  0  0  0  0  0  0  0  0  0  0  0
   21.1398   24.9131   38.7437 C   0  0  2  0  0  0  0  0  0  0  0  0
   20.9926   26.1408   39.6739 C   0  0  0  0  0  0  0  0  0  0  0  0
   21.2425   25.8033   41.1166 C   0  0  0  0  0  0  0  0  0  0  0  0
   21.2108   26.6827   41.9595 O   0  0  0  0  0  0  0  0  0  0  0  0
   22.5977   24.3733   38.7208 C   0  0  0  0  0  0  0  0  0  0  0  0
   22.9818   23.4918   37.5157 C   0  0  0  0  0  0  0  0  0  0  0  0
   23.2033   24.2022   36.1536 C   0  0  0  0  0  0  0  0  0  0  0  0
  1  2  1  0
  2  3  2  0
  2  4  1  0
  4  5  2  0
  5  6  1  0
  6  7  2  0
  7  8  1  0
  8  9  2  0
  9 10  1  0
 10 11  2  0
 11 12  1  0
 12 13  2  0
 13 14  1  0
  1 15  1  0
 15 16  2  0
 16 17  1  0
 17 18  2  0
 18 19  1  0
 19 20  1  0
 20 21  1  0
 21 22  1  1
 22 23  1  0
 23 24  2  0
 21 25  1  0
 25 26  1  0
 26 27  1  0
 13  4  1  0
 27 15  1  0
 12  7  1  0
 21 18  1  0
M  END
>  <AAScore>  (1) 
862.1614129669407

>  <RootName>  (1) 
./4ZLY/04_DeltaGEst/trajectory_01/rank_00/lead_0084

$$$$
