confid_19
     RDKit          3D

 27 30  0  0  0  0  0  0  0  0999 V2000
   25.3300   26.2600   34.7600 N   0  0  0  0  0  0  0  0  0  0  0  0
   26.1200   25.9200   33.6900 C   0  0  0  0  0  0  0  0  0  0  0  0
   25.6300   25.1100   32.9400 O   0  0  0  0  0  0  0  0  0  0  0  0
   27.5200   26.3800   33.4600 C   0  0  0  0  0  0  0  0  0  0  0  0
   28.1600   26.6300   34.6100 N   0  0  0  0  0  0  0  0  0  0  0  0
   29.4800   26.8500   34.5700 N   0  0  0  0  0  0  0  0  0  0  0  0
   30.1900   26.7800   33.4400 C   0  0  0  0  0  0  0  0  0  0  0  0
   31.5600   27.0500   33.5000 C   0  0  0  0  0  0  0  0  0  0  0  0
   32.2700   27.2400   32.3100 C   0  0  0  0  0  0  0  0  0  0  0  0
   31.6100   27.2500   31.0800 C   0  0  0  0  0  0  0  0  0  0  0  0
   30.2700   26.8700   31.0600 C   0  0  0  0  0  0  0  0  0  0  0  0
   29.5100   26.6900   32.2300 C   0  0  0  0  0  0  0  0  0  0  0  0
   28.1400   26.4100   32.2000 C   0  0  0  0  0  0  0  0  0  0  0  0
   27.4300   26.1300   31.0500 N   0  0  0  0  0  0  0  0  0  0  0  0
   23.9909   25.8003   35.0329 C   0  0  0  0  0  0  0  0  0  0  0  0
   23.3665   24.9043   34.2176 N   0  0  0  0  0  0  0  0  0  0  0  0
   22.1029   24.5085   34.5022 C   0  0  0  0  0  0  0  0  0  0  0  0
   21.3384   23.4788   33.7769 C   0  0  0  0  0  0  0  0  0  0  0  0
   19.9732   23.5294   34.3521 N   0  0  0  0  0  0  0  0  0  0  0  0
   19.0705   24.2161   33.4034 C   0  0  0  0  0  0  0  0  0  0  0  0
   20.1243   24.2192   35.6745 C   0  0  2  0  0  0  0  0  0  0  0  0
   18.9091   25.0628   36.1102 C   0  0  0  0  0  0  0  0  0  0  0  0
   21.4230   24.9706   35.5890 C   0  0  0  0  0  0  0  0  0  0  0  0
   22.0788   25.8613   36.4654 C   0  0  0  0  0  0  0  0  0  0  0  0
   23.3456   26.2558   36.1459 N   0  0  0  0  0  0  0  0  0  0  0  0
   21.4824   26.3748   37.7467 C   0  0  0  0  0  0  0  0  0  0  0  0
   21.4694   25.3005   38.8306 C   0  0  0  0  0  0  0  0  0  0  0  0
  1  2  1  0
  2  3  2  0
  2  4  1  0
  4  5  2  0
  5  6  1  0
  6  7  2  0
  7  8  1  0
  8  9  2  0
  9 10  1  0
 10 11  2  0
 11 12  1  0
 12 13  2  0
 13 14  1  0
  1 15  1  0
 15 16  2  0
 16 17  1  0
 17 18  1  0
 18 19  1  0
 19 20  1  0
 19 21  1  0
 21 22  1  6
 21 23  1  0
 23 24  1  0
 24 25  2  0
 24 26  1  0
 26 27  1  0
 13  4  1  0
 25 15  1  0
 12  7  1  0
 23 17  2  0
M  END
>  <AAScore>  (1) 
40357.380781690445

>  <RootName>  (1) 
./4ZLY/04_DeltaGEst/trajectory_03/rank_00/lead_0495

$$$$
