confid_5
     RDKit          3D

 28 31  0  0  0  0  0  0  0  0999 V2000
   24.5500   26.3900   36.2500 N   0  0  0  0  0  0  0  0  0  0  0  0
   25.6000   26.1300   35.4000 C   0  0  0  0  0  0  0  0  0  0  0  0
   25.4300   25.4300   34.4200 O   0  0  0  0  0  0  0  0  0  0  0  0
   26.9800   26.6300   35.7100 C   0  0  0  0  0  0  0  0  0  0  0  0
   27.3200   26.8200   36.9800 N   0  0  0  0  0  0  0  0  0  0  0  0
   28.4700   27.4000   37.3100 N   0  0  0  0  0  0  0  0  0  0  0  0
   29.4000   27.6300   36.3700 C   0  0  0  0  0  0  0  0  0  0  0  0
   30.6600   28.0500   36.8000 C   0  0  0  0  0  0  0  0  0  0  0  0
   31.5700   28.3600   35.7800 C   0  0  0  0  0  0  0  0  0  0  0  0
   31.3700   28.1000   34.4300 C   0  0  0  0  0  0  0  0  0  0  0  0
   30.1200   27.5900   34.0500 C   0  0  0  0  0  0  0  0  0  0  0  0
   29.1500   27.3400   35.0300 C   0  0  0  0  0  0  0  0  0  0  0  0
   27.8800   26.8900   34.6600 C   0  0  0  0  0  0  0  0  0  0  0  0
   27.4800   26.6100   33.3700 N   0  0  0  0  0  0  0  0  0  0  0  0
   23.1517   25.9467   36.0975 C   0  0  0  0  0  0  0  0  0  0  0  0
   22.4520   26.5761   34.8657 C   0  0  0  0  0  0  0  0  0  0  0  0
   22.3932   25.6640   33.6360 C   0  0  0  0  0  0  0  0  0  0  0  0
   21.9138   24.3275   34.0234 N   0  0  0  0  0  0  0  0  0  0  0  0
   21.5080   23.4960   32.8676 C   0  0  0  0  0  0  0  0  0  0  0  0
   22.6525   23.1590   31.8898 C   0  0  0  0  0  0  0  0  0  0  0  0
   22.1357   22.3151   30.7551 C   0  0  0  0  0  0  0  0  0  0  0  0
   21.6200   22.9190   29.5987 C   0  0  0  0  0  0  0  0  0  0  0  0
   21.1149   22.1184   28.5713 C   0  0  0  0  0  0  0  0  0  0  0  0
   21.1146   20.7648   28.6985 N   0  0  0  0  0  0  0  0  0  0  0  0
   21.5966   20.1537   29.8132 C   0  0  0  0  0  0  0  0  0  0  0  0
   22.1109   20.9167   30.8643 C   0  0  0  0  0  0  0  0  0  0  0  0
   22.8839   23.6595   34.9059 C   0  0  0  0  0  0  0  0  0  0  0  0
   22.9877   24.4114   36.2374 C   0  0  0  0  0  0  0  0  0  0  0  0
  1  2  1  0
  2  3  2  0
  2  4  1  0
  4  5  2  0
  5  6  1  0
  6  7  2  0
  7  8  1  0
  8  9  2  0
  9 10  1  0
 10 11  2  0
 11 12  1  0
 12 13  2  0
 13 14  1  0
  1 15  1  0
 15 16  1  0
 16 17  1  0
 17 18  1  0
 18 19  1  0
 19 20  1  0
 20 21  1  0
 21 22  2  0
 22 23  1  0
 23 24  2  0
 24 25  1  0
 25 26  2  0
 18 27  1  0
 27 28  1  0
 13  4  1  0
 28 15  1  0
 12  7  1  0
 26 21  1  0
M  END
>  <AAScore>  (1) 
940.387187985513

>  <RootName>  (1) 
./4ZLY/04_DeltaGEst/trajectory_01/rank_00/lead_0316

$$$$
