confid_6
     RDKit          3D

 26 28  0  0  0  0  0  0  0  0999 V2000
   24.5700   26.8800   35.5900 N   0  0  0  0  0  0  0  0  0  0  0  0
   25.5000   26.4000   34.6900 C   0  0  0  0  0  0  0  0  0  0  0  0
   25.1700   25.5200   33.9100 O   0  0  0  0  0  0  0  0  0  0  0  0
   26.8400   27.0200   34.7400 C   0  0  0  0  0  0  0  0  0  0  0  0
   27.3800   27.2800   35.9400 N   0  0  0  0  0  0  0  0  0  0  0  0
   28.6200   27.7400   36.0300 N   0  0  0  0  0  0  0  0  0  0  0  0
   29.3800   28.0000   34.9600 C   0  0  0  0  0  0  0  0  0  0  0  0
   30.6700   28.5000   35.1300 C   0  0  0  0  0  0  0  0  0  0  0  0
   31.5400   28.6100   34.0300 C   0  0  0  0  0  0  0  0  0  0  0  0
   31.0900   28.2200   32.7700 C   0  0  0  0  0  0  0  0  0  0  0  0
   29.8000   27.7000   32.6000 C   0  0  0  0  0  0  0  0  0  0  0  0
   28.9600   27.5500   33.7100 C   0  0  0  0  0  0  0  0  0  0  0  0
   27.6600   27.0300   33.5900 C   0  0  0  0  0  0  0  0  0  0  0  0
   27.1600   26.7400   32.3400 N   0  0  0  0  0  0  0  0  0  0  0  0
   33.1572   29.2732   34.2357 S   0  0  0  0  0  6  0  0  0  0  0  0
   34.0757   28.6670   33.2119 O   0  0  0  0  0  0  0  0  0  0  0  0
   33.6615   28.9226   35.6083 O   0  0  0  0  0  0  0  0  0  0  0  0
   33.0653   31.0554   33.9963 C   0  0  1  0  0  0  0  0  0  0  0  0
   32.5101   31.7974   35.2024 C   0  0  0  0  0  0  0  0  0  0  0  0
   33.7395   32.5890   35.3875 N   0  0  0  0  0  0  0  0  0  0  0  0
   34.3243   31.9035   34.2214 C   0  0  1  0  0  0  0  0  0  0  0  0
   35.6218   31.1721   34.6096 C   0  0  0  0  0  0  0  0  0  0  0  0
   36.7717   32.1587   34.7947 C   0  0  0  0  0  0  0  0  0  0  0  0
   33.5289   34.0252   35.1184 C   0  0  0  0  0  0  0  0  0  0  0  0
   32.9296   34.7093   36.3511 C   0  0  0  0  0  0  0  0  0  0  0  0
   32.7494   36.2067   36.1201 C   0  0  0  0  0  0  0  0  0  0  0  0
  1  2  1  0
  2  3  2  0
  2  4  1  0
  4  5  2  0
  5  6  1  0
  6  7  2  0
  7  8  1  0
  8  9  2  0
  9 10  1  0
 10 11  2  0
 11 12  1  0
 12 13  2  0
 13 14  1  0
  9 15  1  0
 15 16  2  0
 15 17  2  0
 18 15  1  1
 18 19  1  0
 19 20  1  0
 20 21  1  0
 21 22  1  1
 22 23  1  0
 20 24  1  0
 24 25  1  0
 25 26  1  0
 13  4  1  0
 21 18  1  0
 12  7  1  0
M  END
>  <AAScore>  (1) 
-6.138134953323277

>  <RootName>  (1) 
./4ZLY/04_DeltaGEst/trajectory_05/rank_01/lead_0185

$$$$
