confid_13
     RDKit          3D

 28 31  0  0  0  0  0  0  0  0999 V2000
   24.2000   26.2400   35.6900 N   0  0  0  0  0  0  0  0  0  0  0  0
   24.8500   26.2800   34.4800 C   0  0  0  0  0  0  0  0  0  0  0  0
   24.3100   25.7400   33.5400 O   0  0  0  0  0  0  0  0  0  0  0  0
   26.1800   26.9700   34.4700 C   0  0  0  0  0  0  0  0  0  0  0  0
   26.6500   27.6000   35.5500 N   0  0  0  0  0  0  0  0  0  0  0  0
   27.7900   28.2700   35.6200 N   0  0  0  0  0  0  0  0  0  0  0  0
   28.5400   28.3000   34.5100 C   0  0  0  0  0  0  0  0  0  0  0  0
   29.7700   28.9400   34.5600 C   0  0  0  0  0  0  0  0  0  0  0  0
   30.7000   28.8900   33.5000 C   0  0  0  0  0  0  0  0  0  0  0  0
   30.3700   28.1400   32.3700 C   0  0  0  0  0  0  0  0  0  0  0  0
   29.1200   27.5200   32.2800 C   0  0  0  0  0  0  0  0  0  0  0  0
   28.2100   27.6100   33.3300 C   0  0  0  0  0  0  0  0  0  0  0  0
   26.9700   26.9700   33.3100 C   0  0  0  0  0  0  0  0  0  0  0  0
   26.5300   26.2400   32.2200 N   0  0  0  0  0  0  0  0  0  0  0  0
   30.1377   29.6915   35.7328 N   0  0  0  0  0  0  0  0  0  0  0  0
   31.3415   29.3273   36.5029 C   0  0  0  0  0  0  0  0  0  0  0  0
   32.3109   30.5196   36.5888 C   0  0  0  0  0  0  0  0  0  0  0  0
   31.5481   31.7719   36.8986 C   0  0  0  0  0  0  0  0  0  0  0  0
   31.9965   33.0251   37.2811 C   0  0  0  0  0  0  0  0  0  0  0  0
   30.9544   33.8882   37.2736 N   0  0  0  0  0  0  0  0  0  0  0  0
   29.8693   33.2132   36.9185 N   0  0  0  0  0  0  0  0  0  0  0  0
   28.5581   33.8310   36.7382 C   0  0  0  0  0  0  0  0  0  0  0  0
   28.4379   34.4141   35.3356 C   0  0  0  0  0  0  0  0  0  0  0  0
   30.2089   31.9354   36.6556 C   0  0  0  0  0  0  0  0  0  0  0  0
   29.3156   30.8329   36.1719 C   0  0  0  0  0  0  0  0  0  0  0  0
   33.4278   33.4306   37.5146 C   0  0  0  0  0  0  0  0  0  0  0  0
   33.5334   34.4094   38.6886 C   0  0  0  0  0  0  0  0  0  0  0  0
   34.0130   34.0424   36.2394 C   0  0  0  0  0  0  0  0  0  0  0  0
  1  2  1  0
  2  3  2  0
  2  4  1  0
  4  5  2  0
  5  6  1  0
  6  7  2  0
  7  8  1  0
  8  9  2  0
  9 10  1  0
 10 11  2  0
 11 12  1  0
 12 13  2  0
 13 14  1  0
  8 15  1  0
 15 16  1  0
 16 17  1  0
 17 18  1  0
 18 19  1  0
 19 20  2  0
 20 21  1  0
 21 22  1  0
 22 23  1  0
 21 24  1  0
 24 25  1  0
 19 26  1  0
 26 27  1  0
 26 28  1  0
 13  4  1  0
 25 15  1  0
 12  7  1  0
 24 18  2  0
M  END
>  <AAScore>  (1) 
57.724659339584925

>  <RootName>  (1) 
./4ZLY/04_DeltaGEst/trajectory_04/rank_01/lead_0444

$$$$
