confid_5
     RDKit          3D

 28 31  0  0  0  0  0  0  0  0999 V2000
   24.6900   26.1200   35.5300 N   0  0  0  0  0  0  0  0  0  0  0  0
   25.6600   25.6700   34.6600 C   0  0  0  0  0  0  0  0  0  0  0  0
   25.2400   25.0100   33.7200 O   0  0  0  0  0  0  0  0  0  0  0  0
   27.0300   26.2200   34.8800 C   0  0  0  0  0  0  0  0  0  0  0  0
   27.3500   26.7300   36.0700 N   0  0  0  0  0  0  0  0  0  0  0  0
   28.5700   27.1800   36.3300 N   0  0  0  0  0  0  0  0  0  0  0  0
   29.5300   27.1100   35.3900 C   0  0  0  0  0  0  0  0  0  0  0  0
   30.8300   27.5700   35.6500 C   0  0  0  0  0  0  0  0  0  0  0  0
   31.8500   27.5400   34.6900 C   0  0  0  0  0  0  0  0  0  0  0  0
   31.5100   27.1200   33.4000 C   0  0  0  0  0  0  0  0  0  0  0  0
   30.2200   26.6300   33.1100 C   0  0  0  0  0  0  0  0  0  0  0  0
   29.2400   26.6600   34.1000 C   0  0  0  0  0  0  0  0  0  0  0  0
   27.9300   26.2600   33.8100 C   0  0  0  0  0  0  0  0  0  0  0  0
   27.5200   25.7100   32.6100 N   0  0  0  0  0  0  0  0  0  0  0  0
   31.1738   28.0705   37.0019 C   0  0  0  0  0  0  0  0  0  0  0  0
   31.2247   27.1580   38.0684 C   0  0  0  0  0  0  0  0  0  0  0  0
   31.5728   27.5860   39.3556 C   0  0  0  0  0  0  0  0  0  0  0  0
   31.5411   26.6334   40.5175 C   0  0  0  0  0  0  0  0  0  0  0  0
   32.5419   27.0411   41.6033 C   0  0  0  0  0  0  0  0  0  0  0  0
   32.4348   28.4781   41.8986 N   0  0  0  0  0  0  0  0  0  0  0  0
   32.7924   29.0194   43.1826 C   0  0  0  0  0  0  0  0  0  0  0  0
   32.6803   30.2589   43.3822 O   0  0  0  0  0  0  0  0  0  0  0  0
   33.2836   28.1507   44.3013 C   0  0  0  0  0  0  0  0  0  0  0  0
   32.1893   29.3712   40.8694 O   0  0  0  0  0  0  0  0  0  0  0  0
   31.8478   28.9391   39.5861 C   0  0  0  0  0  0  0  0  0  0  0  0
   31.7854   29.8582   38.5364 C   0  0  0  0  0  0  0  0  0  0  0  0
   31.4410   29.4402   37.2401 C   0  0  0  0  0  0  0  0  0  0  0  0
   31.3836   30.4563   36.1298 C   0  0  0  0  0  0  0  0  0  0  0  0
  1  2  1  0
  2  3  2  0
  2  4  1  0
  4  5  2  0
  5  6  1  0
  6  7  2  0
  7  8  1  0
  8  9  2  0
  9 10  1  0
 10 11  2  0
 11 12  1  0
 12 13  2  0
 13 14  1  0
  8 15  1  0
 15 16  2  0
 16 17  1  0
 17 18  1  0
 18 19  1  0
 19 20  1  0
 20 21  1  0
 21 22  2  0
 21 23  1  0
 20 24  1  0
 24 25  1  0
 25 26  1  0
 26 27  2  0
 27 28  1  0
 13  4  1  0
 27 15  1  0
 12  7  1  0
 25 17  2  0
M  END
>  <AAScore>  (1) 
433.925660006665

>  <RootName>  (1) 
./4ZLY/04_DeltaGEst/trajectory_02/rank_01/lead_0033

$$$$
