confid_0
     RDKit          3D

 28 31  0  0  0  0  0  0  0  0999 V2000
   24.5500   26.3900   36.2500 N   0  0  0  0  0  0  0  0  0  0  0  0
   25.6000   26.1300   35.4000 C   0  0  0  0  0  0  0  0  0  0  0  0
   25.4300   25.4300   34.4200 O   0  0  0  0  0  0  0  0  0  0  0  0
   26.9800   26.6300   35.7100 C   0  0  0  0  0  0  0  0  0  0  0  0
   27.3200   26.8200   36.9800 N   0  0  0  0  0  0  0  0  0  0  0  0
   28.4700   27.4000   37.3100 N   0  0  0  0  0  0  0  0  0  0  0  0
   29.4000   27.6300   36.3700 C   0  0  0  0  0  0  0  0  0  0  0  0
   30.6600   28.0500   36.8000 C   0  0  0  0  0  0  0  0  0  0  0  0
   31.5700   28.3600   35.7800 C   0  0  0  0  0  0  0  0  0  0  0  0
   31.3700   28.1000   34.4300 C   0  0  0  0  0  0  0  0  0  0  0  0
   30.1200   27.5900   34.0500 C   0  0  0  0  0  0  0  0  0  0  0  0
   29.1500   27.3400   35.0300 C   0  0  0  0  0  0  0  0  0  0  0  0
   27.8800   26.8900   34.6600 C   0  0  0  0  0  0  0  0  0  0  0  0
   27.4800   26.6100   33.3700 N   0  0  0  0  0  0  0  0  0  0  0  0
   23.2305   25.7415   36.1807 C   0  0  0  0  0  0  0  0  0  0  0  0
   22.4407   26.2305   34.9529 C   0  0  0  0  0  0  0  0  0  0  0  0
   21.1415   25.4231   34.7752 C   0  0  0  0  0  0  0  0  0  0  0  0
   21.3249   23.9441   34.8555 N   0  0  0  0  0  0  0  0  0  0  0  0
   20.6946   23.2387   33.7204 C   0  0  0  0  0  0  0  0  0  0  0  0
   19.1945   23.2470   33.8689 C   0  0  0  0  0  0  0  0  0  0  0  0
   18.5347   22.5226   34.8934 C   0  0  0  0  0  0  0  0  0  0  0  0
   19.2922   21.6730   35.8801 C   0  0  0  0  0  0  0  0  0  0  0  0
   17.1359   22.6070   34.9805 C   0  0  0  0  0  0  0  0  0  0  0  0
   16.4212   23.3898   34.0744 C   0  0  0  0  0  0  0  0  0  0  0  0
   17.1089   24.0907   33.0846 C   0  0  0  0  0  0  0  0  0  0  0  0
   18.4627   24.0059   33.0059 N   0  0  0  0  0  0  0  0  0  0  0  0
   22.7264   23.5144   35.0252 C   0  0  0  0  0  0  0  0  0  0  0  0
   23.3450   24.1968   36.2492 C   0  0  0  0  0  0  0  0  0  0  0  0
  1  2  1  0
  2  3  2  0
  2  4  1  0
  4  5  2  0
  5  6  1  0
  6  7  2  0
  7  8  1  0
  8  9  2  0
  9 10  1  0
 10 11  2  0
 11 12  1  0
 12 13  2  0
 13 14  1  0
  1 15  1  0
 15 16  1  0
 16 17  1  0
 17 18  1  0
 18 19  1  0
 19 20  1  0
 20 21  2  0
 21 22  1  0
 21 23  1  0
 23 24  2  0
 24 25  1  0
 25 26  2  0
 18 27  1  0
 27 28  1  0
 13  4  1  0
 28 15  1  0
 12  7  1  0
 26 20  1  0
M  END
>  <AAScore>  (1) 
1308.512908405761

>  <RootName>  (1) 
./4ZLY/04_DeltaGEst/trajectory_01/rank_00/lead_0468

$$$$
