confid_14
     RDKit          3D

 29 32  0  0  0  0  0  0  0  0999 V2000
   24.2000   26.2400   35.6900 N   0  0  0  0  0  0  0  0  0  0  0  0
   24.8500   26.2800   34.4800 C   0  0  0  0  0  0  0  0  0  0  0  0
   24.3100   25.7400   33.5400 O   0  0  0  0  0  0  0  0  0  0  0  0
   26.1800   26.9700   34.4700 C   0  0  0  0  0  0  0  0  0  0  0  0
   26.6500   27.6000   35.5500 N   0  0  0  0  0  0  0  0  0  0  0  0
   27.7900   28.2700   35.6200 N   0  0  0  0  0  0  0  0  0  0  0  0
   28.5400   28.3000   34.5100 C   0  0  0  0  0  0  0  0  0  0  0  0
   29.7700   28.9400   34.5600 C   0  0  0  0  0  0  0  0  0  0  0  0
   30.7000   28.8900   33.5000 C   0  0  0  0  0  0  0  0  0  0  0  0
   30.3700   28.1400   32.3700 C   0  0  0  0  0  0  0  0  0  0  0  0
   29.1200   27.5200   32.2800 C   0  0  0  0  0  0  0  0  0  0  0  0
   28.2100   27.6100   33.3300 C   0  0  0  0  0  0  0  0  0  0  0  0
   26.9700   26.9700   33.3100 C   0  0  0  0  0  0  0  0  0  0  0  0
   26.5300   26.2400   32.2200 N   0  0  0  0  0  0  0  0  0  0  0  0
   22.7752   26.0997   35.8414 C   0  0  0  0  0  0  0  0  0  0  0  0
   22.3399   25.4358   36.8696 N   0  0  0  0  0  0  0  0  0  0  0  0
   21.0199   25.0941   37.3293 C   0  0  0  0  0  0  0  0  0  0  0  0
   19.8271   25.6257   36.9692 C   0  0  0  0  0  0  0  0  0  0  0  0
   18.6079   24.9928   37.5967 C   0  0  0  0  0  0  0  0  0  0  0  0
   17.3719   25.7394   37.3185 N   0  0  0  0  0  0  0  0  0  0  0  0
   16.5826   25.2843   36.1545 C   0  0  0  0  0  0  0  0  0  0  0  0
   15.2089   25.9485   36.1402 C   0  0  0  0  0  0  0  0  0  0  0  0
   17.5594   27.0973   37.3952 O   0  0  0  0  0  0  0  0  0  0  0  0
   18.3577   27.5820   36.3241 C   0  0  0  0  0  0  0  0  0  0  0  0
   19.5622   26.6821   35.9168 C   0  0  1  0  0  0  0  0  0  0  0  0
   20.7623   27.5564   35.5120 C   0  0  0  0  0  0  0  0  0  0  0  0
   21.2673   28.2294   36.6163 F   0  0  0  0  0  0  0  0  0  0  0  0
   20.3322   28.5033   34.5934 F   0  0  0  0  0  0  0  0  0  0  0  0
   21.8497   26.7210   34.8389 C   0  0  0  0  0  0  0  0  0  0  0  0
  1  2  1  0
  2  3  2  0
  2  4  1  0
  4  5  2  0
  5  6  1  0
  6  7  2  0
  7  8  1  0
  8  9  2  0
  9 10  1  0
 10 11  2  0
 11 12  1  0
 12 13  2  0
 13 14  1  0
  1 15  1  0
 15 16  2  0
 16 17  1  0
 17 18  2  0
 18 19  1  0
 19 20  1  0
 20 21  1  0
 21 22  1  0
 20 23  1  0
 23 24  1  0
 25 24  1  1
 25 26  1  0
 26 27  1  0
 26 28  1  0
 26 29  1  0
 13  4  1  0
 29 15  1  0
 12  7  1  0
 25 18  1  0
M  END
>  <AAScore>  (1) 
191.90732326069423

>  <RootName>  (1) 
./4ZLY/04_DeltaGEst/trajectory_04/rank_00/lead_0013

$$$$
