confid_15
     RDKit          3D

 27 30  0  0  0  0  0  0  0  0999 V2000
   24.5500   26.3900   36.2500 N   0  0  0  0  0  0  0  0  0  0  0  0
   25.6000   26.1300   35.4000 C   0  0  0  0  0  0  0  0  0  0  0  0
   25.4300   25.4300   34.4200 O   0  0  0  0  0  0  0  0  0  0  0  0
   26.9800   26.6300   35.7100 C   0  0  0  0  0  0  0  0  0  0  0  0
   27.3200   26.8200   36.9800 N   0  0  0  0  0  0  0  0  0  0  0  0
   28.4700   27.4000   37.3100 N   0  0  0  0  0  0  0  0  0  0  0  0
   29.4000   27.6300   36.3700 C   0  0  0  0  0  0  0  0  0  0  0  0
   30.6600   28.0500   36.8000 C   0  0  0  0  0  0  0  0  0  0  0  0
   31.5700   28.3600   35.7800 C   0  0  0  0  0  0  0  0  0  0  0  0
   31.3700   28.1000   34.4300 C   0  0  0  0  0  0  0  0  0  0  0  0
   30.1200   27.5900   34.0500 C   0  0  0  0  0  0  0  0  0  0  0  0
   29.1500   27.3400   35.0300 C   0  0  0  0  0  0  0  0  0  0  0  0
   27.8800   26.8900   34.6600 C   0  0  0  0  0  0  0  0  0  0  0  0
   27.4800   26.6100   33.3700 N   0  0  0  0  0  0  0  0  0  0  0  0
   31.0180   28.2811   38.2220 C   0  0  0  0  0  0  0  0  0  0  0  0
   30.6271   27.5023   39.3140 C   0  0  0  0  0  0  0  0  0  0  0  0
   31.1490   27.9627   40.5289 C   0  0  0  0  0  0  0  0  0  0  0  0
   30.9428   27.2966   41.8543 C   0  0  0  0  0  0  0  0  0  0  0  0
   31.3666   28.2330   43.0072 C   0  0  0  0  0  0  0  0  0  0  0  0
   32.6689   28.8990   42.7545 N   0  0  0  0  0  0  0  0  0  0  0  0
   33.7935   27.9373   42.7047 C   0  0  0  0  0  0  0  0  0  0  0  0
   35.0663   28.5791   43.2655 C   0  0  0  0  0  0  0  0  0  0  0  0
   36.1097   27.6247   43.3272 O   0  0  0  0  0  0  0  0  0  0  0  0
   36.9278   27.7154   42.1812 C   0  0  0  0  0  0  0  0  0  0  0  0
   32.6124   29.7671   41.5520 C   0  0  0  0  0  0  0  0  0  0  0  0
   31.9783   29.0601   40.3927 C   0  0  0  0  0  0  0  0  0  0  0  0
   32.0366   29.5116   38.7776 S   0  0  0  0  0  0  0  0  0  0  0  0
  1  2  1  0
  2  3  2  0
  2  4  1  0
  4  5  2  0
  5  6  1  0
  6  7  2  0
  7  8  1  0
  8  9  2  0
  9 10  1  0
 10 11  2  0
 11 12  1  0
 12 13  2  0
 13 14  1  0
  8 15  1  0
 15 16  2  0
 16 17  1  0
 17 18  1  0
 18 19  1  0
 19 20  1  0
 20 21  1  0
 21 22  1  0
 22 23  1  0
 23 24  1  0
 20 25  1  0
 25 26  1  0
 26 27  1  0
 13  4  1  0
 27 15  1  0
 12  7  1  0
 26 17  2  0
M  END
>  <AAScore>  (1) 
280.3760127220682

>  <RootName>  (1) 
./4ZLY/04_DeltaGEst/trajectory_01/rank_01/lead_0159

$$$$
