confid_16
     RDKit          3D

 30 34  0  0  0  0  0  0  0  0999 V2000
   25.3300   26.2600   34.7600 N   0  0  0  0  0  0  0  0  0  0  0  0
   26.1200   25.9200   33.6900 C   0  0  0  0  0  0  0  0  0  0  0  0
   25.6300   25.1100   32.9400 O   0  0  0  0  0  0  0  0  0  0  0  0
   27.5200   26.3800   33.4600 C   0  0  0  0  0  0  0  0  0  0  0  0
   28.1600   26.6300   34.6100 N   0  0  0  0  0  0  0  0  0  0  0  0
   29.4800   26.8500   34.5700 N   0  0  0  0  0  0  0  0  0  0  0  0
   30.1900   26.7800   33.4400 C   0  0  0  0  0  0  0  0  0  0  0  0
   31.5600   27.0500   33.5000 C   0  0  0  0  0  0  0  0  0  0  0  0
   32.2700   27.2400   32.3100 C   0  0  0  0  0  0  0  0  0  0  0  0
   31.6100   27.2500   31.0800 C   0  0  0  0  0  0  0  0  0  0  0  0
   30.2700   26.8700   31.0600 C   0  0  0  0  0  0  0  0  0  0  0  0
   29.5100   26.6900   32.2300 C   0  0  0  0  0  0  0  0  0  0  0  0
   28.1400   26.4100   32.2000 C   0  0  0  0  0  0  0  0  0  0  0  0
   27.4300   26.1300   31.0500 N   0  0  0  0  0  0  0  0  0  0  0  0
   23.9609   25.8401   34.9033 C   0  0  0  0  0  0  0  0  0  0  0  0
   23.0554   26.4581   33.9794 N   0  0  0  0  0  0  0  0  0  0  0  0
   21.7743   26.6067   33.9785 C   0  0  0  0  0  0  0  0  0  0  0  0
   21.1776   27.4475   32.8716 C   0  0  0  0  0  0  0  0  0  0  0  0
   19.6524   27.5755   32.9832 C   0  0  0  0  0  0  0  0  0  0  0  0
   19.2538   27.7911   34.4443 C   0  0  0  0  0  0  0  0  0  0  0  0
   19.7437   26.6691   35.2442 N   0  0  0  0  0  0  0  0  0  0  0  0
   20.9235   26.1440   35.0818 C   0  0  0  0  0  0  0  0  0  0  0  0
   21.2229   24.9655   35.8129 N   0  0  0  0  0  0  0  0  0  0  0  0
   22.3354   24.3574   36.0950 C   0  0  0  0  0  0  0  0  0  0  0  0
   22.1824   23.2015   36.8810 C   0  0  0  0  0  0  0  0  0  0  0  0
   23.2718   22.5363   37.4229 C   0  0  0  0  0  0  0  0  0  0  0  0
   24.5578   23.0137   37.1981 C   0  0  0  0  0  0  0  0  0  0  0  0
   24.7414   24.1543   36.4081 C   0  0  0  0  0  0  0  0  0  0  0  0
   23.6529   24.8353   35.7838 C   0  0  0  0  0  0  0  0  0  0  0  0
   25.7317   22.3428   37.8506 C   0  0  0  0  0  0  0  0  0  0  0  0
  1  2  1  0
  2  3  2  0
  2  4  1  0
  4  5  2  0
  5  6  1  0
  6  7  2  0
  7  8  1  0
  8  9  2  0
  9 10  1  0
 10 11  2  0
 11 12  1  0
 12 13  2  0
 13 14  1  0
  1 15  1  0
 15 16  1  0
 16 17  2  0
 17 18  1  0
 18 19  1  0
 19 20  1  0
 20 21  1  0
 21 22  2  0
 22 23  1  0
 23 24  2  0
 24 25  1  0
 25 26  2  0
 26 27  1  0
 27 28  2  0
 28 29  1  0
 27 30  1  0
 13  4  1  0
 29 15  2  0
 12  7  1  0
 22 17  1  0
 29 24  1  0
M  END
>  <AAScore>  (1) 
6502.044527693902

>  <RootName>  (1) 
./4ZLY/04_DeltaGEst/trajectory_03/rank_00/lead_0387

$$$$
