confid_9
     RDKit          3D

 32 34  0  0  0  0  0  0  0  0999 V2000
   24.5500   26.3900   36.2500 N   0  0  0  0  0  0  0  0  0  0  0  0
   25.6000   26.1300   35.4000 C   0  0  0  0  0  0  0  0  0  0  0  0
   25.4300   25.4300   34.4200 O   0  0  0  0  0  0  0  0  0  0  0  0
   26.9800   26.6300   35.7100 C   0  0  0  0  0  0  0  0  0  0  0  0
   27.3200   26.8200   36.9800 N   0  0  0  0  0  0  0  0  0  0  0  0
   28.4700   27.4000   37.3100 N   0  0  0  0  0  0  0  0  0  0  0  0
   29.4000   27.6300   36.3700 C   0  0  0  0  0  0  0  0  0  0  0  0
   30.6600   28.0500   36.8000 C   0  0  0  0  0  0  0  0  0  0  0  0
   31.5700   28.3600   35.7800 C   0  0  0  0  0  0  0  0  0  0  0  0
   31.3700   28.1000   34.4300 C   0  0  0  0  0  0  0  0  0  0  0  0
   30.1200   27.5900   34.0500 C   0  0  0  0  0  0  0  0  0  0  0  0
   29.1500   27.3400   35.0300 C   0  0  0  0  0  0  0  0  0  0  0  0
   27.8800   26.8900   34.6600 C   0  0  0  0  0  0  0  0  0  0  0  0
   27.4800   26.6100   33.3700 N   0  0  0  0  0  0  0  0  0  0  0  0
   23.1623   26.0080   35.9533 C   0  0  1  0  0  0  0  0  0  0  0  0
   22.3831   25.7965   37.2767 C   0  0  0  0  0  0  0  0  0  0  0  0
   22.0230   27.0867   38.0448 C   0  0  0  0  0  0  0  0  0  0  0  0
   20.5639   27.2062   38.2073 N   0  0  0  0  0  0  0  0  0  0  0  0
   19.6947   27.5583   37.1076 C   0  0  0  0  0  0  0  0  0  0  0  0
   18.5367   27.0622   37.0558 O   0  0  0  0  0  0  0  0  0  0  0  0
   20.0918   28.5754   36.0590 C   0  0  0  0  0  0  0  0  0  0  0  0
   20.2566   28.0178   34.6885 N   0  0  0  0  0  0  0  0  0  0  0  0
   18.9641   27.8858   33.9750 C   0  0  0  0  0  0  0  0  0  0  0  0
   18.6784   29.1570   33.1778 C   0  0  0  0  0  0  0  0  0  0  0  0
   17.4634   28.9947   32.4738 O   0  0  0  0  0  0  0  0  0  0  0  0
   17.1282   30.1785   31.7770 C   0  0  0  0  0  0  0  0  0  0  0  0
   16.9060   31.2252   32.6568 F   0  0  0  0  0  0  0  0  0  0  0  0
   15.9623   29.9547   31.0714 F   0  0  0  0  0  0  0  0  0  0  0  0
   18.1199   30.5269   30.8734 F   0  0  0  0  0  0  0  0  0  0  0  0
   21.0653   26.7783   34.6229 C   0  0  0  0  0  0  0  0  0  0  0  0
   22.5449   27.0426   34.9830 C   0  0  0  0  0  0  0  0  0  0  0  0
   19.9467   26.8417   39.4864 C   0  0  0  0  0  0  0  0  0  0  0  0
  1  2  1  0
  2  3  2  0
  2  4  1  0
  4  5  2  0
  5  6  1  0
  6  7  2  0
  7  8  1  0
  8  9  2  0
  9 10  1  0
 10 11  2  0
 11 12  1  0
 12 13  2  0
 13 14  1  0
 15  1  1  1
 15 16  1  0
 16 17  1  0
 17 18  1  0
 18 19  1  0
 19 20  2  0
 19 21  1  0
 21 22  1  0
 22 23  1  0
 23 24  1  0
 24 25  1  0
 25 26  1  0
 26 27  1  0
 26 28  1  0
 26 29  1  0
 22 30  1  0
 30 31  1  0
 18 32  1  0
 13  4  1  0
 31 15  1  0
 12  7  1  0
M  END
>  <AAScore>  (1) 
1434.1070982778908

>  <RootName>  (1) 
./4ZLY/04_DeltaGEst/trajectory_01/rank_00/lead_0464

$$$$
