confid_2
     RDKit          3D

 29 32  0  0  0  0  0  0  0  0999 V2000
   25.3300   26.2600   34.7600 N   0  0  0  0  0  0  0  0  0  0  0  0
   26.1200   25.9200   33.6900 C   0  0  0  0  0  0  0  0  0  0  0  0
   25.6300   25.1100   32.9400 O   0  0  0  0  0  0  0  0  0  0  0  0
   27.5200   26.3800   33.4600 C   0  0  0  0  0  0  0  0  0  0  0  0
   28.1600   26.6300   34.6100 N   0  0  0  0  0  0  0  0  0  0  0  0
   29.4800   26.8500   34.5700 N   0  0  0  0  0  0  0  0  0  0  0  0
   30.1900   26.7800   33.4400 C   0  0  0  0  0  0  0  0  0  0  0  0
   31.5600   27.0500   33.5000 C   0  0  0  0  0  0  0  0  0  0  0  0
   32.2700   27.2400   32.3100 C   0  0  0  0  0  0  0  0  0  0  0  0
   31.6100   27.2500   31.0800 C   0  0  0  0  0  0  0  0  0  0  0  0
   30.2700   26.8700   31.0600 C   0  0  0  0  0  0  0  0  0  0  0  0
   29.5100   26.6900   32.2300 C   0  0  0  0  0  0  0  0  0  0  0  0
   28.1400   26.4100   32.2000 C   0  0  0  0  0  0  0  0  0  0  0  0
   27.4300   26.1300   31.0500 N   0  0  0  0  0  0  0  0  0  0  0  0
   27.6261   24.8399   30.3743 C   0  0  0  0  0  0  0  0  0  0  0  0
   26.9794   24.8325   28.9849 C   0  0  0  0  0  0  0  0  0  0  0  0
   27.2262   26.1119   28.2973 N   0  0  0  0  0  0  0  0  0  0  0  0
   27.5886   26.1172   26.8970 C   0  0  0  0  0  0  0  0  0  0  0  0
   27.4646   25.0633   26.2169 O   0  0  0  0  0  0  0  0  0  0  0  0
   28.0881   27.3561   26.1982 C   0  0  0  0  0  0  0  0  0  0  0  0
   29.3895   27.8589   26.7615 C   0  0  0  0  0  0  0  0  0  0  0  0
   30.6220   27.1944   26.8150 C   0  0  0  0  0  0  0  0  0  0  0  0
   30.8588   25.7721   26.3863 C   0  0  0  0  0  0  0  0  0  0  0  0
   30.8660   24.8367   27.5923 C   0  0  0  0  0  0  0  0  0  0  0  0
   31.6525   27.9917   27.3440 C   0  0  0  0  0  0  0  0  0  0  0  0
   31.2543   29.2778   27.6807 C   0  0  0  0  0  0  0  0  0  0  0  0
   29.6218   29.4312   27.3216 S   0  0  0  0  0  0  0  0  0  0  0  0
   26.9602   27.3784   29.0043 C   0  0  0  0  0  0  0  0  0  0  0  0
   26.5524   27.1440   30.4601 C   0  0  0  0  0  0  0  0  0  0  0  0
  1  2  1  0
  2  3  2  0
  2  4  1  0
  4  5  2  0
  5  6  1  0
  6  7  2  0
  7  8  1  0
  8  9  2  0
  9 10  1  0
 10 11  2  0
 11 12  1  0
 12 13  2  0
 13 14  1  0
 14 15  1  0
 15 16  1  0
 16 17  1  0
 17 18  1  0
 18 19  2  0
 18 20  1  0
 20 21  1  0
 21 22  2  0
 22 23  1  0
 23 24  1  0
 22 25  1  0
 25 26  2  0
 26 27  1  0
 17 28  1  0
 28 29  1  0
 13  4  1  0
 29 14  1  0
 12  7  1  0
 27 21  1  0
M  END
>  <AAScore>  (1) 
-3.2312937359325544

>  <RootName>  (1) 
./4ZLY/04_DeltaGEst/trajectory_03/rank_01/lead_0251

$$$$
