confid_1
     RDKit          3D

 28 31  0  0  0  0  0  0  0  0999 V2000
   24.5500   26.3900   36.2500 N   0  0  0  0  0  0  0  0  0  0  0  0
   25.6000   26.1300   35.4000 C   0  0  0  0  0  0  0  0  0  0  0  0
   25.4300   25.4300   34.4200 O   0  0  0  0  0  0  0  0  0  0  0  0
   26.9800   26.6300   35.7100 C   0  0  0  0  0  0  0  0  0  0  0  0
   27.3200   26.8200   36.9800 N   0  0  0  0  0  0  0  0  0  0  0  0
   28.4700   27.4000   37.3100 N   0  0  0  0  0  0  0  0  0  0  0  0
   29.4000   27.6300   36.3700 C   0  0  0  0  0  0  0  0  0  0  0  0
   30.6600   28.0500   36.8000 C   0  0  0  0  0  0  0  0  0  0  0  0
   31.5700   28.3600   35.7800 C   0  0  0  0  0  0  0  0  0  0  0  0
   31.3700   28.1000   34.4300 C   0  0  0  0  0  0  0  0  0  0  0  0
   30.1200   27.5900   34.0500 C   0  0  0  0  0  0  0  0  0  0  0  0
   29.1500   27.3400   35.0300 C   0  0  0  0  0  0  0  0  0  0  0  0
   27.8800   26.8900   34.6600 C   0  0  0  0  0  0  0  0  0  0  0  0
   27.4800   26.6100   33.3700 N   0  0  0  0  0  0  0  0  0  0  0  0
   23.1634   26.2193   35.9094 C   0  0  0  0  0  0  0  0  0  0  0  0
   22.2768   25.9083   36.8936 N   0  0  0  0  0  0  0  0  0  0  0  0
   20.9475   25.7637   36.6526 C   0  0  0  0  0  0  0  0  0  0  0  0
   20.4435   25.9336   35.3571 C   0  0  0  0  0  0  0  0  0  0  0  0
   18.9668   25.8279   35.0917 C   0  0  0  0  0  0  0  0  0  0  0  0
   18.7079   25.3721   33.6847 C   0  0  0  0  0  0  0  0  0  0  0  0
   17.6506   24.7317   33.4407 O   0  0  0  0  0  0  0  0  0  0  0  0
   19.6453   25.6926   32.6287 N   0  0  0  0  0  0  0  0  0  0  0  0
   20.7927   26.5614   32.9425 C   0  0  0  0  0  0  0  0  0  0  0  0
   21.3281   26.2810   34.3229 C   0  0  0  0  0  0  0  0  0  0  0  0
   22.6918   26.4403   34.6041 C   0  0  0  0  0  0  0  0  0  0  0  0
   19.4474   25.2452   31.2332 C   0  0  0  0  0  0  0  0  0  0  0  0
   19.4775   23.7163   31.1315 C   0  0  0  0  0  0  0  0  0  0  0  0
   18.1644   25.8319   30.6317 C   0  0  0  0  0  0  0  0  0  0  0  0
  1  2  1  0
  2  3  2  0
  2  4  1  0
  4  5  2  0
  5  6  1  0
  6  7  2  0
  7  8  1  0
  8  9  2  0
  9 10  1  0
 10 11  2  0
 11 12  1  0
 12 13  2  0
 13 14  1  0
  1 15  1  0
 15 16  2  0
 16 17  1  0
 17 18  2  0
 18 19  1  0
 19 20  1  0
 20 21  2  0
 20 22  1  0
 22 23  1  0
 23 24  1  0
 24 25  2  0
 22 26  1  0
 26 27  1  0
 26 28  1  0
 13  4  1  0
 25 15  1  0
 12  7  1  0
 24 18  1  0
M  END
>  <AAScore>  (1) 
731.7182723539263

>  <RootName>  (1) 
./4ZLY/04_DeltaGEst/trajectory_01/rank_00/lead_0018

$$$$
