confid_17
     RDKit          3D

 27 30  0  0  0  0  0  0  0  0999 V2000
   24.6900   26.1200   35.5300 N   0  0  0  0  0  0  0  0  0  0  0  0
   25.6600   25.6700   34.6600 C   0  0  0  0  0  0  0  0  0  0  0  0
   25.2400   25.0100   33.7200 O   0  0  0  0  0  0  0  0  0  0  0  0
   27.0300   26.2200   34.8800 C   0  0  0  0  0  0  0  0  0  0  0  0
   27.3500   26.7300   36.0700 N   0  0  0  0  0  0  0  0  0  0  0  0
   28.5700   27.1800   36.3300 N   0  0  0  0  0  0  0  0  0  0  0  0
   29.5300   27.1100   35.3900 C   0  0  0  0  0  0  0  0  0  0  0  0
   30.8300   27.5700   35.6500 C   0  0  0  0  0  0  0  0  0  0  0  0
   31.8500   27.5400   34.6900 C   0  0  0  0  0  0  0  0  0  0  0  0
   31.5100   27.1200   33.4000 C   0  0  0  0  0  0  0  0  0  0  0  0
   30.2200   26.6300   33.1100 C   0  0  0  0  0  0  0  0  0  0  0  0
   29.2400   26.6600   34.1000 C   0  0  0  0  0  0  0  0  0  0  0  0
   27.9300   26.2600   33.8100 C   0  0  0  0  0  0  0  0  0  0  0  0
   27.5200   25.7100   32.6100 N   0  0  0  0  0  0  0  0  0  0  0  0
   31.1542   28.0541   36.9669 N   0  0  0  0  0  0  0  0  0  0  0  0
   31.2455   27.0964   38.0782 C   0  0  0  0  0  0  0  0  0  0  0  0
   30.3314   27.4960   39.2427 C   0  0  0  0  0  0  0  0  0  0  0  0
   30.9471   28.5929   40.0793 C   0  0  0  0  0  0  0  0  0  0  0  0
   31.3335   28.3122   41.4020 C   0  0  0  0  0  0  0  0  0  0  0  0
   31.9240   29.2975   42.1938 C   0  0  0  0  0  0  0  0  0  0  0  0
   32.2907   29.0134   43.4678 F   0  0  0  0  0  0  0  0  0  0  0  0
   32.1427   30.5722   41.6744 C   0  0  0  0  0  0  0  0  0  0  0  0
   31.7720   30.8705   40.3615 C   0  0  0  0  0  0  0  0  0  0  0  0
   32.0125   32.1187   39.8851 F   0  0  0  0  0  0  0  0  0  0  0  0
   31.1657   29.8886   39.5500 C   0  0  0  0  0  0  0  0  0  0  0  0
   30.7893   30.2149   38.1215 C   0  0  0  0  0  0  0  0  0  0  0  0
   31.6480   29.4292   37.1250 C   0  0  0  0  0  0  0  0  0  0  0  0
  1  2  1  0
  2  3  2  0
  2  4  1  0
  4  5  2  0
  5  6  1  0
  6  7  2  0
  7  8  1  0
  8  9  2  0
  9 10  1  0
 10 11  2  0
 11 12  1  0
 12 13  2  0
 13 14  1  0
  8 15  1  0
 15 16  1  0
 16 17  1  0
 17 18  1  0
 18 19  2  0
 19 20  1  0
 20 21  1  0
 20 22  2  0
 22 23  1  0
 23 24  1  0
 23 25  2  0
 25 26  1  0
 26 27  1  0
 13  4  1  0
 27 15  1  0
 12  7  1  0
 25 18  1  0
M  END
>  <AAScore>  (1) 
-1.471662765082565

>  <RootName>  (1) 
./4ZLY/04_DeltaGEst/trajectory_02/rank_01/lead_0175

$$$$
