confid_16
     RDKit          3D

 27 30  0  0  0  0  0  0  0  0999 V2000
   24.2000   26.2400   35.6900 N   0  0  0  0  0  0  0  0  0  0  0  0
   24.8500   26.2800   34.4800 C   0  0  0  0  0  0  0  0  0  0  0  0
   24.3100   25.7400   33.5400 O   0  0  0  0  0  0  0  0  0  0  0  0
   26.1800   26.9700   34.4700 C   0  0  0  0  0  0  0  0  0  0  0  0
   26.6500   27.6000   35.5500 N   0  0  0  0  0  0  0  0  0  0  0  0
   27.7900   28.2700   35.6200 N   0  0  0  0  0  0  0  0  0  0  0  0
   28.5400   28.3000   34.5100 C   0  0  0  0  0  0  0  0  0  0  0  0
   29.7700   28.9400   34.5600 C   0  0  0  0  0  0  0  0  0  0  0  0
   30.7000   28.8900   33.5000 C   0  0  0  0  0  0  0  0  0  0  0  0
   30.3700   28.1400   32.3700 C   0  0  0  0  0  0  0  0  0  0  0  0
   29.1200   27.5200   32.2800 C   0  0  0  0  0  0  0  0  0  0  0  0
   28.2100   27.6100   33.3300 C   0  0  0  0  0  0  0  0  0  0  0  0
   26.9700   26.9700   33.3100 C   0  0  0  0  0  0  0  0  0  0  0  0
   26.5300   26.2400   32.2200 N   0  0  0  0  0  0  0  0  0  0  0  0
   30.1228   29.6989   35.7252 N   0  0  0  0  0  0  0  0  0  0  0  0
   30.8367   29.0532   36.8270 C   0  0  0  0  0  0  0  0  0  0  0  0
   30.3475   29.6134   38.1660 C   0  0  0  0  0  0  0  0  0  0  0  0
   30.2470   31.0870   38.1560 N   0  0  0  0  0  0  0  0  0  0  0  0
   29.9403   31.8149   39.3735 C   0  0  0  0  0  0  0  0  0  0  0  0
   29.5540   31.1481   40.5559 C   0  0  0  0  0  0  0  0  0  0  0  0
   29.2563   31.8873   41.6996 C   0  0  0  0  0  0  0  0  0  0  0  0
   29.3348   33.2874   41.6748 C   0  0  0  0  0  0  0  0  0  0  0  0
   28.9719   34.0894   42.8900 C   0  0  0  0  0  0  0  0  0  0  0  0
   29.6970   33.9224   40.4800 C   0  0  0  0  0  0  0  0  0  0  0  0
   29.9899   33.1816   39.3794 N   0  0  0  0  0  0  0  0  0  0  0  0
   30.5819   31.8209   36.9209 C   0  0  0  0  0  0  0  0  0  0  0  0
   29.9399   31.1537   35.7002 C   0  0  0  0  0  0  0  0  0  0  0  0
  1  2  1  0
  2  3  2  0
  2  4  1  0
  4  5  2  0
  5  6  1  0
  6  7  2  0
  7  8  1  0
  8  9  2  0
  9 10  1  0
 10 11  2  0
 11 12  1  0
 12 13  2  0
 13 14  1  0
  8 15  1  0
 15 16  1  0
 16 17  1  0
 17 18  1  0
 18 19  1  0
 19 20  2  0
 20 21  1  0
 21 22  2  0
 22 23  1  0
 22 24  1  0
 24 25  2  0
 18 26  1  0
 26 27  1  0
 13  4  1  0
 27 15  1  0
 12  7  1  0
 25 19  1  0
M  END
>  <AAScore>  (1) 
-8.400886984344952

>  <RootName>  (1) 
./4ZLY/04_DeltaGEst/trajectory_04/rank_01/lead_0334

$$$$
