confid_18
     RDKit          3D

 29 32  0  0  0  0  0  0  0  0999 V2000
   24.6900   26.1200   35.5300 N   0  0  0  0  0  0  0  0  0  0  0  0
   25.6600   25.6700   34.6600 C   0  0  0  0  0  0  0  0  0  0  0  0
   25.2400   25.0100   33.7200 O   0  0  0  0  0  0  0  0  0  0  0  0
   27.0300   26.2200   34.8800 C   0  0  0  0  0  0  0  0  0  0  0  0
   27.3500   26.7300   36.0700 N   0  0  0  0  0  0  0  0  0  0  0  0
   28.5700   27.1800   36.3300 N   0  0  0  0  0  0  0  0  0  0  0  0
   29.5300   27.1100   35.3900 C   0  0  0  0  0  0  0  0  0  0  0  0
   30.8300   27.5700   35.6500 C   0  0  0  0  0  0  0  0  0  0  0  0
   31.8500   27.5400   34.6900 C   0  0  0  0  0  0  0  0  0  0  0  0
   31.5100   27.1200   33.4000 C   0  0  0  0  0  0  0  0  0  0  0  0
   30.2200   26.6300   33.1100 C   0  0  0  0  0  0  0  0  0  0  0  0
   29.2400   26.6600   34.1000 C   0  0  0  0  0  0  0  0  0  0  0  0
   27.9300   26.2600   33.8100 C   0  0  0  0  0  0  0  0  0  0  0  0
   27.5200   25.7100   32.6100 N   0  0  0  0  0  0  0  0  0  0  0  0
   31.1529   28.0410   36.9693 N   0  0  0  0  0  0  0  0  0  0  0  0
   32.1580   27.3271   37.7663 C   0  0  0  0  0  0  0  0  0  0  0  0
   32.0467   27.7092   39.2443 C   0  0  0  0  0  0  0  0  0  0  0  0
   30.6265   27.9298   39.5705 N   0  0  0  0  0  0  0  0  0  0  0  0
   30.3710   27.9061   41.0282 C   0  0  0  0  0  0  0  0  0  0  0  0
   29.6055   26.6330   41.4072 C   0  0  0  0  0  0  0  0  0  0  0  0
   30.3893   25.3887   41.0769 C   0  0  0  0  0  0  0  0  0  0  0  0
   30.2663   24.6431   39.8796 C   0  0  0  0  0  0  0  0  0  0  0  0
   31.1450   23.5660   39.8120 C   0  0  0  0  0  0  0  0  0  0  0  0
   32.0798   23.5579   41.2057 S   0  0  0  0  0  0  0  0  0  0  0  0
   31.3829   24.9054   41.9234 C   0  0  0  0  0  0  0  0  0  0  0  0
   29.2669   24.9173   38.7877 C   0  0  0  0  0  0  0  0  0  0  0  0
   27.9644   24.1678   39.0413 C   0  0  0  0  0  0  0  0  0  0  0  0
   30.1259   29.1676   38.9343 C   0  0  0  0  0  0  0  0  0  0  0  0
   30.5855   29.3009   37.4652 C   0  0  0  0  0  0  0  0  0  0  0  0
  1  2  1  0
  2  3  2  0
  2  4  1  0
  4  5  2  0
  5  6  1  0
  6  7  2  0
  7  8  1  0
  8  9  2  0
  9 10  1  0
 10 11  2  0
 11 12  1  0
 12 13  2  0
 13 14  1  0
  8 15  1  0
 15 16  1  0
 16 17  1  0
 17 18  1  0
 18 19  1  0
 19 20  1  0
 20 21  1  0
 21 22  1  0
 22 23  2  0
 23 24  1  0
 24 25  1  0
 22 26  1  0
 26 27  1  0
 18 28  1  0
 28 29  1  0
 13  4  1  0
 29 15  1  0
 12  7  1  0
 25 21  2  0
M  END
>  <AAScore>  (1) 
39.47984186721623

>  <RootName>  (1) 
./4ZLY/04_DeltaGEst/trajectory_02/rank_01/lead_0489

$$$$
