confid_3
     RDKit          3D

 29 33  0  0  0  0  0  0  0  0999 V2000
   24.4800   26.1000   36.1300 N   0  0  0  0  0  0  0  0  0  0  0  0
   25.2500   26.2500   34.9900 C   0  0  0  0  0  0  0  0  0  0  0  0
   24.7400   25.7600   33.9900 O   0  0  0  0  0  0  0  0  0  0  0  0
   26.5900   26.8900   34.9600 C   0  0  0  0  0  0  0  0  0  0  0  0
   27.0600   27.2400   36.1600 N   0  0  0  0  0  0  0  0  0  0  0  0
   28.3000   27.7100   36.2400 N   0  0  0  0  0  0  0  0  0  0  0  0
   29.0500   27.9600   35.1500 C   0  0  0  0  0  0  0  0  0  0  0  0
   30.3400   28.4900   35.2600 C   0  0  0  0  0  0  0  0  0  0  0  0
   31.1100   28.8200   34.1400 C   0  0  0  0  0  0  0  0  0  0  0  0
   30.5200   28.6700   32.8800 C   0  0  0  0  0  0  0  0  0  0  0  0
   29.2900   28.0200   32.7700 C   0  0  0  0  0  0  0  0  0  0  0  0
   28.5200   27.7100   33.8900 C   0  0  0  0  0  0  0  0  0  0  0  0
   27.2700   27.0800   33.7600 C   0  0  0  0  0  0  0  0  0  0  0  0
   26.7500   26.8800   32.4900 N   0  0  0  0  0  0  0  0  0  0  0  0
   23.0427   26.0096   36.1592 C   0  0  0  0  0  0  0  0  0  0  0  0
   22.4583   25.7111   37.2884 N   0  0  0  0  0  0  0  0  0  0  0  0
   21.0357   25.6255   37.4156 C   0  0  0  0  0  0  0  0  0  0  0  0
   20.4213   24.5779   36.8881 C   0  0  0  0  0  0  0  0  0  0  0  0
   19.0750   24.1470   36.3855 C   0  0  0  0  0  0  0  0  0  0  0  0
   19.5277   22.9469   35.8377 O   0  0  0  0  0  0  0  0  0  0  0  0
   20.7914   23.2343   36.3457 C   0  0  1  0  0  0  0  0  0  0  0  0
   21.9138   23.2427   35.2900 C   0  0  0  0  0  0  0  0  0  0  0  0
   21.6812   24.0904   34.0266 C   0  0  0  0  0  0  0  0  0  0  0  0
   21.4762   25.5992   34.1547 C   0  0  0  0  0  0  0  0  0  0  0  0
   20.6201   26.1883   33.2044 C   0  0  0  0  0  0  0  0  0  0  0  0
   20.5104   27.5738   33.1102 C   0  0  0  0  0  0  0  0  0  0  0  0
   21.2446   28.3711   33.9225 N   0  0  0  0  0  0  0  0  0  0  0  0
   22.0881   27.8557   34.8509 C   0  0  0  0  0  0  0  0  0  0  0  0
   22.2278   26.4670   35.0022 C   0  0  0  0  0  0  0  0  0  0  0  0
  1  2  1  0
  2  3  2  0
  2  4  1  0
  4  5  2  0
  5  6  1  0
  6  7  2  0
  7  8  1  0
  8  9  2  0
  9 10  1  0
 10 11  2  0
 11 12  1  0
 12 13  2  0
 13 14  1  0
  1 15  1  0
 15 16  2  0
 16 17  1  0
 17 18  2  0
 18 19  1  0
 19 20  1  0
 20 21  1  0
 21 22  1  6
 22 23  1  0
 23 24  1  0
 24 25  2  0
 25 26  1  0
 26 27  2  0
 27 28  1  0
 28 29  2  0
 13  4  1  0
 29 15  1  0
 12  7  1  0
 21 18  1  0
 29 24  1  0
M  END
>  <AAScore>  (1) 
19999.22090545361

>  <RootName>  (1) 
./4ZLY/04_DeltaGEst/trajectory_00/rank_01/lead_0098

$$$$
