confid_3
     RDKit          3D

 27 30  0  0  0  0  0  0  0  0999 V2000
   24.5500   26.3900   36.2500 N   0  0  0  0  0  0  0  0  0  0  0  0
   25.6000   26.1300   35.4000 C   0  0  0  0  0  0  0  0  0  0  0  0
   25.4300   25.4300   34.4200 O   0  0  0  0  0  0  0  0  0  0  0  0
   26.9800   26.6300   35.7100 C   0  0  0  0  0  0  0  0  0  0  0  0
   27.3200   26.8200   36.9800 N   0  0  0  0  0  0  0  0  0  0  0  0
   28.4700   27.4000   37.3100 N   0  0  0  0  0  0  0  0  0  0  0  0
   29.4000   27.6300   36.3700 C   0  0  0  0  0  0  0  0  0  0  0  0
   30.6600   28.0500   36.8000 C   0  0  0  0  0  0  0  0  0  0  0  0
   31.5700   28.3600   35.7800 C   0  0  0  0  0  0  0  0  0  0  0  0
   31.3700   28.1000   34.4300 C   0  0  0  0  0  0  0  0  0  0  0  0
   30.1200   27.5900   34.0500 C   0  0  0  0  0  0  0  0  0  0  0  0
   29.1500   27.3400   35.0300 C   0  0  0  0  0  0  0  0  0  0  0  0
   27.8800   26.8900   34.6600 C   0  0  0  0  0  0  0  0  0  0  0  0
   27.4800   26.6100   33.3700 N   0  0  0  0  0  0  0  0  0  0  0  0
   23.1775   26.0592   35.9769 C   0  0  0  0  0  0  0  0  0  0  0  0
   22.7603   25.6664   34.8167 N   0  0  0  0  0  0  0  0  0  0  0  0
   21.3532   25.5123   34.9128 C   0  0  0  0  0  0  0  0  0  0  0  0
   20.9145   25.8229   36.1229 C   0  0  0  0  0  0  0  0  0  0  0  0
   19.4681   25.8141   36.5217 C   0  0  0  0  0  0  0  0  0  0  0  0
   19.2904   26.2182   37.9325 N   0  0  0  0  0  0  0  0  0  0  0  0
   17.8652   26.4886   38.1887 C   0  0  0  0  0  0  0  0  0  0  0  0
   19.7942   25.1798   38.8649 C   0  0  0  0  0  0  0  0  0  0  0  0
   21.2388   25.4791   39.2936 C   0  0  0  0  0  0  0  0  0  0  0  0
   21.5650   24.6320   40.3397 F   0  0  0  0  0  0  0  0  0  0  0  0
   21.3264   26.7824   39.7564 F   0  0  0  0  0  0  0  0  0  0  0  0
   22.2596   25.2543   38.1662 C   0  0  0  0  0  0  0  0  0  0  0  0
   22.0746   26.2168   36.9810 C   0  0  1  0  0  0  0  0  0  0  0  0
  1  2  1  0
  2  3  2  0
  2  4  1  0
  4  5  2  0
  5  6  1  0
  6  7  2  0
  7  8  1  0
  8  9  2  0
  9 10  1  0
 10 11  2  0
 11 12  1  0
 12 13  2  0
 13 14  1  0
  1 15  1  0
 15 16  2  0
 16 17  1  0
 17 18  2  0
 18 19  1  0
 19 20  1  0
 20 21  1  0
 20 22  1  0
 22 23  1  0
 23 24  1  0
 23 25  1  0
 23 26  1  0
 27 26  1  1
 13  4  1  0
 27 15  1  0
 12  7  1  0
 27 18  1  0
M  END
>  <AAScore>  (1) 
1339.8606585720368

>  <RootName>  (1) 
./4ZLY/04_DeltaGEst/trajectory_01/rank_00/lead_0349

$$$$
