confid_16
     RDKit          3D

 29 32  0  0  0  0  0  0  0  0999 V2000
   24.2000   26.2400   35.6900 N   0  0  0  0  0  0  0  0  0  0  0  0
   24.8500   26.2800   34.4800 C   0  0  0  0  0  0  0  0  0  0  0  0
   24.3100   25.7400   33.5400 O   0  0  0  0  0  0  0  0  0  0  0  0
   26.1800   26.9700   34.4700 C   0  0  0  0  0  0  0  0  0  0  0  0
   26.6500   27.6000   35.5500 N   0  0  0  0  0  0  0  0  0  0  0  0
   27.7900   28.2700   35.6200 N   0  0  0  0  0  0  0  0  0  0  0  0
   28.5400   28.3000   34.5100 C   0  0  0  0  0  0  0  0  0  0  0  0
   29.7700   28.9400   34.5600 C   0  0  0  0  0  0  0  0  0  0  0  0
   30.7000   28.8900   33.5000 C   0  0  0  0  0  0  0  0  0  0  0  0
   30.3700   28.1400   32.3700 C   0  0  0  0  0  0  0  0  0  0  0  0
   29.1200   27.5200   32.2800 C   0  0  0  0  0  0  0  0  0  0  0  0
   28.2100   27.6100   33.3300 C   0  0  0  0  0  0  0  0  0  0  0  0
   26.9700   26.9700   33.3100 C   0  0  0  0  0  0  0  0  0  0  0  0
   26.5300   26.2400   32.2200 N   0  0  0  0  0  0  0  0  0  0  0  0
   23.1308   25.3336   36.0401 C   0  0  0  0  0  0  0  0  0  0  0  0
   22.8683   24.3301   35.2362 N   0  0  0  0  0  0  0  0  0  0  0  0
   21.9258   23.2463   35.3013 C   0  0  0  0  0  0  0  0  0  0  0  0
   21.8021   22.4140   36.3512 C   0  0  0  0  0  0  0  0  0  0  0  0
   22.4260   22.7545   37.6551 C   0  0  0  0  0  0  0  0  0  0  0  0
   21.4422   23.5589   38.3948 N   0  0  0  0  0  0  0  0  0  0  0  0
   20.1783   22.7972   38.6292 C   0  0  0  0  0  0  0  0  0  0  0  0
   19.9661   21.5136   37.7541 C   0  0  0  0  0  0  0  0  0  0  0  0
   20.6772   21.5167   36.4515 N   0  0  0  0  0  0  0  0  0  0  0  0
   20.3653   20.4765   35.4195 C   0  0  0  0  0  0  0  0  0  0  0  0
   21.5980   20.1478   34.5372 C   0  0  0  0  0  0  0  0  0  0  0  0
   19.9338   19.1436   36.0858 C   0  0  0  0  0  0  0  0  0  0  0  0
   19.2069   20.9698   34.5303 C   0  0  0  0  0  0  0  0  0  0  0  0
   21.1442   24.8509   37.7238 C   0  0  0  0  0  0  0  0  0  0  0  0
   22.4035   25.6492   37.3478 C   0  0  0  0  0  0  0  0  0  0  0  0
  1  2  1  0
  2  3  2  0
  2  4  1  0
  4  5  2  0
  5  6  1  0
  6  7  2  0
  7  8  1  0
  8  9  2  0
  9 10  1  0
 10 11  2  0
 11 12  1  0
 12 13  2  0
 13 14  1  0
  1 15  1  0
 15 16  2  0
 16 17  1  0
 17 18  2  0
 18 19  1  0
 19 20  1  0
 20 21  1  0
 21 22  1  0
 22 23  1  0
 23 24  1  0
 24 25  1  0
 24 26  1  0
 24 27  1  0
 20 28  1  0
 28 29  1  0
 13  4  1  0
 29 15  1  0
 12  7  1  0
 23 18  1  0
M  END
>  <AAScore>  (1) 
2594.171093600008

>  <RootName>  (1) 
./4ZLY/04_DeltaGEst/trajectory_04/rank_00/lead_0167

$$$$
