confid_13
     RDKit          3D

 28 31  0  0  0  0  0  0  0  0999 V2000
   24.6900   26.1200   35.5300 N   0  0  0  0  0  0  0  0  0  0  0  0
   25.6600   25.6700   34.6600 C   0  0  0  0  0  0  0  0  0  0  0  0
   25.2400   25.0100   33.7200 O   0  0  0  0  0  0  0  0  0  0  0  0
   27.0300   26.2200   34.8800 C   0  0  0  0  0  0  0  0  0  0  0  0
   27.3500   26.7300   36.0700 N   0  0  0  0  0  0  0  0  0  0  0  0
   28.5700   27.1800   36.3300 N   0  0  0  0  0  0  0  0  0  0  0  0
   29.5300   27.1100   35.3900 C   0  0  0  0  0  0  0  0  0  0  0  0
   30.8300   27.5700   35.6500 C   0  0  0  0  0  0  0  0  0  0  0  0
   31.8500   27.5400   34.6900 C   0  0  0  0  0  0  0  0  0  0  0  0
   31.5100   27.1200   33.4000 C   0  0  0  0  0  0  0  0  0  0  0  0
   30.2200   26.6300   33.1100 C   0  0  0  0  0  0  0  0  0  0  0  0
   29.2400   26.6600   34.1000 C   0  0  0  0  0  0  0  0  0  0  0  0
   27.9300   26.2600   33.8100 C   0  0  0  0  0  0  0  0  0  0  0  0
   27.5200   25.7100   32.6100 N   0  0  0  0  0  0  0  0  0  0  0  0
   31.1923   28.0727   37.0002 C   0  0  0  0  0  0  0  0  0  0  0  0
   31.9733   29.2097   37.2538 C   0  0  0  0  0  0  0  0  0  0  0  0
   32.0952   29.4483   38.6219 C   0  0  0  0  0  0  0  0  0  0  0  0
   32.4956   30.6483   39.3897 C   0  0  0  0  0  0  0  0  0  0  0  0
   31.9511   30.3634   40.7264 N   0  0  0  0  0  0  0  0  0  0  0  0
   32.0266   31.2584   41.8504 C   0  0  0  0  0  0  0  0  0  0  0  0
   31.3984   30.9847   42.9098 O   0  0  0  0  0  0  0  0  0  0  0  0
   32.9022   32.4796   41.8244 C   0  0  0  0  0  0  0  0  0  0  0  0
   34.2809   32.1542   42.4022 C   0  0  0  0  0  0  0  0  0  0  0  0
   35.0922   33.3138   42.4085 O   0  0  0  0  0  0  0  0  0  0  0  0
   35.9434   33.3270   41.2845 C   0  0  0  0  0  0  0  0  0  0  0  0
   31.2779   29.0596   40.7875 C   0  0  0  0  0  0  0  0  0  0  0  0
   31.4629   28.5560   39.4150 C   0  0  0  0  0  0  0  0  0  0  0  0
   30.6508   27.4260   38.4833 S   0  0  0  0  0  0  0  0  0  0  0  0
  1  2  1  0
  2  3  2  0
  2  4  1  0
  4  5  2  0
  5  6  1  0
  6  7  2  0
  7  8  1  0
  8  9  2  0
  9 10  1  0
 10 11  2  0
 11 12  1  0
 12 13  2  0
 13 14  1  0
  8 15  1  0
 15 16  2  0
 16 17  1  0
 17 18  1  0
 18 19  1  0
 19 20  1  0
 20 21  2  0
 20 22  1  0
 22 23  1  0
 23 24  1  0
 24 25  1  0
 19 26  1  0
 26 27  1  0
 27 28  1  0
 13  4  1  0
 28 15  1  0
 12  7  1  0
 27 17  2  0
M  END
>  <AAScore>  (1) 
11.480713763338182

>  <RootName>  (1) 
./4ZLY/04_DeltaGEst/trajectory_02/rank_01/lead_0051

$$$$
