confid_16
     RDKit          3D

 29 32  0  0  0  0  0  0  0  0999 V2000
   24.4800   26.1000   36.1300 N   0  0  0  0  0  0  0  0  0  0  0  0
   25.2500   26.2500   34.9900 C   0  0  0  0  0  0  0  0  0  0  0  0
   24.7400   25.7600   33.9900 O   0  0  0  0  0  0  0  0  0  0  0  0
   26.5900   26.8900   34.9600 C   0  0  0  0  0  0  0  0  0  0  0  0
   27.0600   27.2400   36.1600 N   0  0  0  0  0  0  0  0  0  0  0  0
   28.3000   27.7100   36.2400 N   0  0  0  0  0  0  0  0  0  0  0  0
   29.0500   27.9600   35.1500 C   0  0  0  0  0  0  0  0  0  0  0  0
   30.3400   28.4900   35.2600 C   0  0  0  0  0  0  0  0  0  0  0  0
   31.1100   28.8200   34.1400 C   0  0  0  0  0  0  0  0  0  0  0  0
   30.5200   28.6700   32.8800 C   0  0  0  0  0  0  0  0  0  0  0  0
   29.2900   28.0200   32.7700 C   0  0  0  0  0  0  0  0  0  0  0  0
   28.5200   27.7100   33.8900 C   0  0  0  0  0  0  0  0  0  0  0  0
   27.2700   27.0800   33.7600 C   0  0  0  0  0  0  0  0  0  0  0  0
   26.7500   26.8800   32.4900 N   0  0  0  0  0  0  0  0  0  0  0  0
   23.4827   25.0790   36.3355 C   0  0  0  0  0  0  0  0  0  0  0  0
   23.4006   24.0085   35.5028 N   0  0  0  0  0  0  0  0  0  0  0  0
   22.4802   23.0273   35.6754 C   0  0  0  0  0  0  0  0  0  0  0  0
   21.5590   23.0827   36.7349 C   0  0  0  0  0  0  0  0  0  0  0  0
   20.4873   22.0039   36.8189 C   0  0  0  0  0  0  0  0  0  0  0  0
   19.3567   22.1874   35.8607 N   0  0  0  0  0  0  0  0  0  0  0  0
   19.7392   21.7272   34.5079 C   0  0  0  0  0  0  0  0  0  0  0  0
   18.7334   23.5520   35.8811 C   0  0  1  0  0  0  0  0  0  0  0  0
   17.8155   23.8166   34.6643 C   0  0  0  0  0  0  0  0  0  0  0  0
   17.8640   23.7504   37.1499 C   0  0  0  0  0  0  0  0  0  0  0  0
   18.5886   23.5879   38.3481 O   0  0  0  0  0  0  0  0  0  0  0  0
   19.3932   24.7140   38.6393 C   0  0  0  0  0  0  0  0  0  0  0  0
   20.8241   24.2506   38.9228 C   0  0  0  0  0  0  0  0  0  0  0  0
   21.6662   24.1533   37.6649 C   0  0  0  0  0  0  0  0  0  0  0  0
   22.6230   25.1573   37.4355 C   0  0  0  0  0  0  0  0  0  0  0  0
  1  2  1  0
  2  3  2  0
  2  4  1  0
  4  5  2  0
  5  6  1  0
  6  7  2  0
  7  8  1  0
  8  9  2  0
  9 10  1  0
 10 11  2  0
 11 12  1  0
 12 13  2  0
 13 14  1  0
  1 15  1  0
 15 16  2  0
 16 17  1  0
 17 18  2  0
 18 19  1  0
 19 20  1  0
 20 21  1  0
 20 22  1  0
 22 23  1  6
 22 24  1  0
 24 25  1  0
 25 26  1  0
 26 27  1  0
 27 28  1  0
 28 29  2  0
 13  4  1  0
 29 15  1  0
 12  7  1  0
 28 18  1  0
M  END
>  <AAScore>  (1) 
613.1502981346101

>  <RootName>  (1) 
./4ZLY/04_DeltaGEst/trajectory_00/rank_00/lead_0059

$$$$
