confid_19
     RDKit          3D

 29 31  0  0  0  0  0  0  0  0999 V2000
   24.5700   26.8800   35.5900 N   0  0  0  0  0  0  0  0  0  0  0  0
   25.5000   26.4000   34.6900 C   0  0  0  0  0  0  0  0  0  0  0  0
   25.1700   25.5200   33.9100 O   0  0  0  0  0  0  0  0  0  0  0  0
   26.8400   27.0200   34.7400 C   0  0  0  0  0  0  0  0  0  0  0  0
   27.3800   27.2800   35.9400 N   0  0  0  0  0  0  0  0  0  0  0  0
   28.6200   27.7400   36.0300 N   0  0  0  0  0  0  0  0  0  0  0  0
   29.3800   28.0000   34.9600 C   0  0  0  0  0  0  0  0  0  0  0  0
   30.6700   28.5000   35.1300 C   0  0  0  0  0  0  0  0  0  0  0  0
   31.5400   28.6100   34.0300 C   0  0  0  0  0  0  0  0  0  0  0  0
   31.0900   28.2200   32.7700 C   0  0  0  0  0  0  0  0  0  0  0  0
   29.8000   27.7000   32.6000 C   0  0  0  0  0  0  0  0  0  0  0  0
   28.9600   27.5500   33.7100 C   0  0  0  0  0  0  0  0  0  0  0  0
   27.6600   27.0300   33.5900 C   0  0  0  0  0  0  0  0  0  0  0  0
   27.1600   26.7400   32.3400 N   0  0  0  0  0  0  0  0  0  0  0  0
   33.1970   29.1907   34.2399 S   0  0  0  0  0  6  0  0  0  0  0  0
   33.6190   28.9705   35.6658 O   0  0  0  0  0  0  0  0  0  0  0  0
   34.0911   28.3467   33.3738 O   0  0  0  0  0  0  0  0  0  0  0  0
   33.4651   30.9283   33.7870 C   0  0  1  0  0  0  0  0  0  0  0  0
   33.0458   31.2047   32.3372 C   0  0  0  0  0  0  0  0  0  0  0  0
   31.8258   32.0424   32.3500 N   0  0  0  0  0  0  0  0  0  0  0  0
   31.4173   32.1869   33.7582 C   0  0  2  0  0  0  0  0  0  0  0  0
   30.8061   33.5756   33.9866 C   0  0  0  0  0  0  0  0  0  0  0  0
   32.6862   31.9799   34.5816 C   0  0  1  0  0  0  0  0  0  0  0  0
   32.4367   31.6842   36.0658 C   0  0  0  0  0  0  0  0  0  0  0  0
   30.7315   31.5411   31.4791 C   0  0  0  0  0  0  0  0  0  0  0  0
   30.7375   32.2251   30.0854 C   0  0  0  0  0  0  0  0  0  0  0  0
   29.5280   31.7090   29.2764 C   0  0  0  0  0  0  0  0  0  0  0  0
   30.6185   33.7540   30.2409 C   0  0  0  0  0  0  0  0  0  0  0  0
   32.0268   31.8873   29.3104 C   0  0  0  0  0  0  0  0  0  0  0  0
  1  2  1  0
  2  3  2  0
  2  4  1  0
  4  5  2  0
  5  6  1  0
  6  7  2  0
  7  8  1  0
  8  9  2  0
  9 10  1  0
 10 11  2  0
 11 12  1  0
 12 13  2  0
 13 14  1  0
  9 15  1  0
 15 16  2  0
 15 17  2  0
 18 15  1  1
 18 19  1  0
 19 20  1  0
 20 21  1  0
 21 22  1  6
 21 23  1  0
 23 24  1  1
 20 25  1  0
 25 26  1  0
 26 27  1  0
 26 28  1  0
 26 29  1  0
 13  4  1  0
 23 18  1  0
 12  7  1  0
M  END
>  <AAScore>  (1) 
553.2816798918349

>  <RootName>  (1) 
./4ZLY/04_DeltaGEst/trajectory_05/rank_01/lead_0035

$$$$
