confid_6
     RDKit          3D

 28 31  0  0  0  0  0  0  0  0999 V2000
   24.2000   26.2400   35.6900 N   0  0  0  0  0  0  0  0  0  0  0  0
   24.8500   26.2800   34.4800 C   0  0  0  0  0  0  0  0  0  0  0  0
   24.3100   25.7400   33.5400 O   0  0  0  0  0  0  0  0  0  0  0  0
   26.1800   26.9700   34.4700 C   0  0  0  0  0  0  0  0  0  0  0  0
   26.6500   27.6000   35.5500 N   0  0  0  0  0  0  0  0  0  0  0  0
   27.7900   28.2700   35.6200 N   0  0  0  0  0  0  0  0  0  0  0  0
   28.5400   28.3000   34.5100 C   0  0  0  0  0  0  0  0  0  0  0  0
   29.7700   28.9400   34.5600 C   0  0  0  0  0  0  0  0  0  0  0  0
   30.7000   28.8900   33.5000 C   0  0  0  0  0  0  0  0  0  0  0  0
   30.3700   28.1400   32.3700 C   0  0  0  0  0  0  0  0  0  0  0  0
   29.1200   27.5200   32.2800 C   0  0  0  0  0  0  0  0  0  0  0  0
   28.2100   27.6100   33.3300 C   0  0  0  0  0  0  0  0  0  0  0  0
   26.9700   26.9700   33.3100 C   0  0  0  0  0  0  0  0  0  0  0  0
   26.5300   26.2400   32.2200 N   0  0  0  0  0  0  0  0  0  0  0  0
   23.1614   25.2957   36.0120 C   0  0  0  0  0  0  0  0  0  0  0  0
   22.8621   24.2156   35.2633 N   0  0  0  0  0  0  0  0  0  0  0  0
   21.8818   23.5944   35.9546 C   0  0  0  0  0  0  0  0  0  0  0  0
   21.2308   22.3349   35.4522 C   0  0  0  0  0  0  0  0  0  0  0  0
   19.7257   22.5095   35.1991 C   0  0  0  0  0  0  0  0  0  0  0  0
   18.9733   22.1033   36.4094 N   0  0  0  0  0  0  0  0  0  0  0  0
   18.2321   23.2168   37.0388 C   0  0  0  0  0  0  0  0  0  0  0  0
   19.1484   24.3515   37.5407 C   0  0  0  0  0  0  0  0  0  0  0  0
   20.5147   23.8706   38.0672 C   0  0  0  0  0  0  0  0  0  0  0  0
   21.5748   24.2250   37.1159 N   0  0  0  0  0  0  0  0  0  0  0  0
   22.3628   25.3230   37.1401 C   0  0  0  0  0  0  0  0  0  0  0  0
   22.3807   26.3667   38.2263 C   0  0  0  0  0  0  0  0  0  0  0  0
   23.3638   25.9823   39.3260 C   0  0  0  0  0  0  0  0  0  0  0  0
   18.0607   20.9841   36.1242 C   0  0  0  0  0  0  0  0  0  0  0  0
  1  2  1  0
  2  3  2  0
  2  4  1  0
  4  5  2  0
  5  6  1  0
  6  7  2  0
  7  8  1  0
  8  9  2  0
  9 10  1  0
 10 11  2  0
 11 12  1  0
 12 13  2  0
 13 14  1  0
  1 15  1  0
 15 16  1  0
 16 17  2  0
 17 18  1  0
 18 19  1  0
 19 20  1  0
 20 21  1  0
 21 22  1  0
 22 23  1  0
 23 24  1  0
 24 25  1  0
 25 26  1  0
 26 27  1  0
 20 28  1  0
 13  4  1  0
 25 15  2  0
 12  7  1  0
 24 17  1  0
M  END
>  <AAScore>  (1) 
610.2267431362262

>  <RootName>  (1) 
./4ZLY/04_DeltaGEst/trajectory_04/rank_00/lead_0321

$$$$
