confid_3
     RDKit          3D

 26 29  0  0  0  0  0  0  0  0999 V2000
   24.6900   26.1200   35.5300 N   0  0  0  0  0  0  0  0  0  0  0  0
   25.6600   25.6700   34.6600 C   0  0  0  0  0  0  0  0  0  0  0  0
   25.2400   25.0100   33.7200 O   0  0  0  0  0  0  0  0  0  0  0  0
   27.0300   26.2200   34.8800 C   0  0  0  0  0  0  0  0  0  0  0  0
   27.3500   26.7300   36.0700 N   0  0  0  0  0  0  0  0  0  0  0  0
   28.5700   27.1800   36.3300 N   0  0  0  0  0  0  0  0  0  0  0  0
   29.5300   27.1100   35.3900 C   0  0  0  0  0  0  0  0  0  0  0  0
   30.8300   27.5700   35.6500 C   0  0  0  0  0  0  0  0  0  0  0  0
   31.8500   27.5400   34.6900 C   0  0  0  0  0  0  0  0  0  0  0  0
   31.5100   27.1200   33.4000 C   0  0  0  0  0  0  0  0  0  0  0  0
   30.2200   26.6300   33.1100 C   0  0  0  0  0  0  0  0  0  0  0  0
   29.2400   26.6600   34.1000 C   0  0  0  0  0  0  0  0  0  0  0  0
   27.9300   26.2600   33.8100 C   0  0  0  0  0  0  0  0  0  0  0  0
   27.5200   25.7100   32.6100 N   0  0  0  0  0  0  0  0  0  0  0  0
   31.1787   28.0684   37.0052 C   0  0  0  0  0  0  0  0  0  0  0  0
   31.1089   27.1604   38.0922 C   0  0  0  0  0  0  0  0  0  0  0  0
   31.3977   27.4538   39.4478 C   0  0  0  0  0  0  0  0  0  0  0  0
   31.3009   26.3264   40.4493 C   0  0  0  0  0  0  0  0  0  0  0  0
   31.2766   26.8323   41.8942 C   0  0  0  0  0  0  0  0  0  0  0  0
   32.3648   27.8048   42.0970 N   0  0  0  0  0  0  0  0  0  0  0  0
   32.4901   28.1337   43.5251 C   0  0  0  0  0  0  0  0  0  0  0  0
   32.0967   29.0308   41.3206 C   0  0  0  0  0  0  0  0  0  0  0  0
   31.8509   28.7167   39.8697 C   0  0  0  0  0  0  0  0  0  0  0  0
   31.9808   29.9412   38.7136 S   0  0  0  0  0  0  0  0  0  0  0  0
   31.5725   29.4063   37.1684 C   0  0  0  0  0  0  0  0  0  0  0  0
   31.6154   30.2066   36.1959 O   0  0  0  0  0  0  0  0  0  0  0  0
  1  2  1  0
  2  3  2  0
  2  4  1  0
  4  5  2  0
  5  6  1  0
  6  7  2  0
  7  8  1  0
  8  9  2  0
  9 10  1  0
 10 11  2  0
 11 12  1  0
 12 13  2  0
 13 14  1  0
  8 15  1  0
 15 16  2  0
 16 17  1  0
 17 18  1  0
 18 19  1  0
 19 20  1  0
 20 21  1  0
 20 22  1  0
 22 23  1  0
 23 24  1  0
 24 25  1  0
 25 26  2  0
 13  4  1  0
 25 15  1  0
 12  7  1  0
 23 17  2  0
M  END
>  <AAScore>  (1) 
10.418441080202902

>  <RootName>  (1) 
./4ZLY/04_DeltaGEst/trajectory_02/rank_01/lead_0198

$$$$
