confid_10
     RDKit          3D

 29 32  0  0  0  0  0  0  0  0999 V2000
   24.2000   26.2400   35.6900 N   0  0  0  0  0  0  0  0  0  0  0  0
   24.8500   26.2800   34.4800 C   0  0  0  0  0  0  0  0  0  0  0  0
   24.3100   25.7400   33.5400 O   0  0  0  0  0  0  0  0  0  0  0  0
   26.1800   26.9700   34.4700 C   0  0  0  0  0  0  0  0  0  0  0  0
   26.6500   27.6000   35.5500 N   0  0  0  0  0  0  0  0  0  0  0  0
   27.7900   28.2700   35.6200 N   0  0  0  0  0  0  0  0  0  0  0  0
   28.5400   28.3000   34.5100 C   0  0  0  0  0  0  0  0  0  0  0  0
   29.7700   28.9400   34.5600 C   0  0  0  0  0  0  0  0  0  0  0  0
   30.7000   28.8900   33.5000 C   0  0  0  0  0  0  0  0  0  0  0  0
   30.3700   28.1400   32.3700 C   0  0  0  0  0  0  0  0  0  0  0  0
   29.1200   27.5200   32.2800 C   0  0  0  0  0  0  0  0  0  0  0  0
   28.2100   27.6100   33.3300 C   0  0  0  0  0  0  0  0  0  0  0  0
   26.9700   26.9700   33.3100 C   0  0  0  0  0  0  0  0  0  0  0  0
   26.5300   26.2400   32.2200 N   0  0  0  0  0  0  0  0  0  0  0  0
   30.1397   29.6876   35.7306 N   0  0  0  0  0  0  0  0  0  0  0  0
   29.4502   30.9472   36.0342 C   0  0  0  0  0  0  0  0  0  0  0  0
   30.2064   31.7311   37.1062 C   0  0  0  0  0  0  0  0  0  0  0  0
   31.6510   31.6350   36.8273 N   0  0  0  0  0  0  0  0  0  0  0  0
   32.4209   32.6327   37.6010 C   0  0  0  0  0  0  0  0  0  0  0  0
   32.4843   33.9636   36.8416 C   0  0  0  0  0  0  0  0  0  0  0  0
   33.3114   34.9722   37.6023 C   0  0  0  0  0  0  0  0  0  0  0  0
   34.7153   35.0476   37.4534 C   0  0  0  0  0  0  0  0  0  0  0  0
   35.5923   33.9965   36.3464 Cl  0  0  0  0  0  0  0  0  0  0  0  0
   35.4473   35.9759   38.2044 C   0  0  0  0  0  0  0  0  0  0  0  0
   34.7996   36.8213   39.1075 C   0  0  0  0  0  0  0  0  0  0  0  0
   33.4163   36.7420   39.2700 C   0  0  0  0  0  0  0  0  0  0  0  0
   32.6755   35.8197   38.5266 C   0  0  0  0  0  0  0  0  0  0  0  0
   32.1449   30.2643   37.0973 C   0  0  0  0  0  0  0  0  0  0  0  0
   31.1640   29.1605   36.6395 C   0  0  0  0  0  0  0  0  0  0  0  0
  1  2  1  0
  2  3  2  0
  2  4  1  0
  4  5  2  0
  5  6  1  0
  6  7  2  0
  7  8  1  0
  8  9  2  0
  9 10  1  0
 10 11  2  0
 11 12  1  0
 12 13  2  0
 13 14  1  0
  8 15  1  0
 15 16  1  0
 16 17  1  0
 17 18  1  0
 18 19  1  0
 19 20  1  0
 20 21  1  0
 21 22  2  0
 22 23  1  0
 22 24  1  0
 24 25  2  0
 25 26  1  0
 26 27  2  0
 18 28  1  0
 28 29  1  0
 13  4  1  0
 29 15  1  0
 12  7  1  0
 27 21  1  0
M  END
>  <AAScore>  (1) 
-8.132505600353172

>  <RootName>  (1) 
./4ZLY/04_DeltaGEst/trajectory_04/rank_01/lead_0128

$$$$
