confid_8
     RDKit          3D

 27 29  0  0  0  0  0  0  0  0999 V2000
   24.5700   26.8800   35.5900 N   0  0  0  0  0  0  0  0  0  0  0  0
   25.5000   26.4000   34.6900 C   0  0  0  0  0  0  0  0  0  0  0  0
   25.1700   25.5200   33.9100 O   0  0  0  0  0  0  0  0  0  0  0  0
   26.8400   27.0200   34.7400 C   0  0  0  0  0  0  0  0  0  0  0  0
   27.3800   27.2800   35.9400 N   0  0  0  0  0  0  0  0  0  0  0  0
   28.6200   27.7400   36.0300 N   0  0  0  0  0  0  0  0  0  0  0  0
   29.3800   28.0000   34.9600 C   0  0  0  0  0  0  0  0  0  0  0  0
   30.6700   28.5000   35.1300 C   0  0  0  0  0  0  0  0  0  0  0  0
   31.5400   28.6100   34.0300 C   0  0  0  0  0  0  0  0  0  0  0  0
   31.0900   28.2200   32.7700 C   0  0  0  0  0  0  0  0  0  0  0  0
   29.8000   27.7000   32.6000 C   0  0  0  0  0  0  0  0  0  0  0  0
   28.9600   27.5500   33.7100 C   0  0  0  0  0  0  0  0  0  0  0  0
   27.6600   27.0300   33.5900 C   0  0  0  0  0  0  0  0  0  0  0  0
   27.1600   26.7400   32.3400 N   0  0  0  0  0  0  0  0  0  0  0  0
   33.2066   29.1415   34.2583 S   0  0  0  0  0  6  0  0  0  0  0  0
   33.2605   30.1326   35.3873 O   0  0  0  0  0  0  0  0  0  0  0  0
   33.6820   29.8267   33.0076 O   0  0  0  0  0  0  0  0  0  0  0  0
   34.3077   27.7645   34.6265 C   0  0  2  0  0  0  0  0  0  0  0  0
   34.2277   26.6437   33.5841 C   0  0  0  0  0  0  0  0  0  0  0  0
   33.7397   25.4200   34.2451 N   0  0  0  0  0  0  0  0  0  0  0  0
   32.2908   25.2102   34.0184 C   0  0  0  0  0  0  0  0  0  0  0  0
   31.9235   23.7310   34.2144 C   0  0  0  0  0  0  0  0  0  0  0  0
   30.4330   23.4473   33.9111 C   0  0  0  0  0  0  0  0  0  0  0  0
   29.5161   23.9646   35.0302 C   0  0  0  0  0  0  0  0  0  0  0  0
   30.2096   21.9425   33.7151 C   0  0  0  0  0  0  0  0  0  0  0  0
   34.0399   25.6117   35.6720 C   0  0  0  0  0  0  0  0  0  0  0  0
   33.9883   27.1021   35.9579 C   0  0  0  0  0  0  0  0  0  0  0  0
  1  2  1  0
  2  3  2  0
  2  4  1  0
  4  5  2  0
  5  6  1  0
  6  7  2  0
  7  8  1  0
  8  9  2  0
  9 10  1  0
 10 11  2  0
 11 12  1  0
 12 13  2  0
 13 14  1  0
  9 15  1  0
 15 16  2  0
 15 17  2  0
 18 15  1  6
 18 19  1  0
 19 20  1  0
 20 21  1  0
 21 22  1  0
 22 23  1  0
 23 24  1  0
 23 25  1  0
 20 26  1  0
 26 27  1  0
 13  4  1  0
 27 18  1  0
 12  7  1  0
M  END
>  <AAScore>  (1) 
180.33712975375528

>  <RootName>  (1) 
./4ZLY/04_DeltaGEst/trajectory_05/rank_01/lead_0212

$$$$
