confid_18
     RDKit          3D

 30 33  0  0  0  0  0  0  0  0999 V2000
   24.2000   26.2400   35.6900 N   0  0  0  0  0  0  0  0  0  0  0  0
   24.8500   26.2800   34.4800 C   0  0  0  0  0  0  0  0  0  0  0  0
   24.3100   25.7400   33.5400 O   0  0  0  0  0  0  0  0  0  0  0  0
   26.1800   26.9700   34.4700 C   0  0  0  0  0  0  0  0  0  0  0  0
   26.6500   27.6000   35.5500 N   0  0  0  0  0  0  0  0  0  0  0  0
   27.7900   28.2700   35.6200 N   0  0  0  0  0  0  0  0  0  0  0  0
   28.5400   28.3000   34.5100 C   0  0  0  0  0  0  0  0  0  0  0  0
   29.7700   28.9400   34.5600 C   0  0  0  0  0  0  0  0  0  0  0  0
   30.7000   28.8900   33.5000 C   0  0  0  0  0  0  0  0  0  0  0  0
   30.3700   28.1400   32.3700 C   0  0  0  0  0  0  0  0  0  0  0  0
   29.1200   27.5200   32.2800 C   0  0  0  0  0  0  0  0  0  0  0  0
   28.2100   27.6100   33.3300 C   0  0  0  0  0  0  0  0  0  0  0  0
   26.9700   26.9700   33.3100 C   0  0  0  0  0  0  0  0  0  0  0  0
   26.5300   26.2400   32.2200 N   0  0  0  0  0  0  0  0  0  0  0  0
   30.1545   29.6539   35.7456 N   0  0  0  0  0  0  0  0  0  0  0  0
   31.2295   29.1381   36.5968 C   0  0  0  0  0  0  0  0  0  0  0  0
   32.3072   30.2169   36.8371 C   0  0  0  0  0  0  0  0  0  0  0  0
   31.8466   31.5826   36.4897 N   0  0  0  0  0  0  0  0  0  0  0  0
   32.7597   32.5963   37.0551 C   0  0  0  0  0  0  0  0  0  0  0  0
   32.7406   33.8744   36.2071 C   0  0  0  0  0  0  0  0  0  0  0  0
   33.9050   34.7697   36.5675 C   0  0  0  0  0  0  0  0  0  0  0  0
   35.1625   34.6712   35.9138 C   0  0  0  0  0  0  0  0  0  0  0  0
   35.3908   33.7061   34.7772 C   0  0  0  0  0  0  0  0  0  0  0  0
   36.2216   35.4983   36.3298 C   0  0  0  0  0  0  0  0  0  0  0  0
   36.0488   36.3971   37.3839 C   0  0  0  0  0  0  0  0  0  0  0  0
   34.8205   36.4788   38.0426 C   0  0  0  0  0  0  0  0  0  0  0  0
   34.6589   37.3495   39.0730 F   0  0  0  0  0  0  0  0  0  0  0  0
   33.7549   35.6722   37.6362 C   0  0  0  0  0  0  0  0  0  0  0  0
   30.4538   31.7947   36.9308 C   0  0  0  0  0  0  0  0  0  0  0  0
   29.5211   30.9367   36.0692 C   0  0  0  0  0  0  0  0  0  0  0  0
  1  2  1  0
  2  3  2  0
  2  4  1  0
  4  5  2  0
  5  6  1  0
  6  7  2  0
  7  8  1  0
  8  9  2  0
  9 10  1  0
 10 11  2  0
 11 12  1  0
 12 13  2  0
 13 14  1  0
  8 15  1  0
 15 16  1  0
 16 17  1  0
 17 18  1  0
 18 19  1  0
 19 20  1  0
 20 21  1  0
 21 22  2  0
 22 23  1  0
 22 24  1  0
 24 25  2  0
 25 26  1  0
 26 27  1  0
 26 28  2  0
 18 29  1  0
 29 30  1  0
 13  4  1  0
 30 15  1  0
 12  7  1  0
 28 21  1  0
M  END
>  <AAScore>  (1) 
-7.448877393132232

>  <RootName>  (1) 
./4ZLY/04_DeltaGEst/trajectory_04/rank_01/lead_0176

$$$$
