confid_12
     RDKit          3D

 29 32  0  0  0  0  0  0  0  0999 V2000
   24.2000   26.2400   35.6900 N   0  0  0  0  0  0  0  0  0  0  0  0
   24.8500   26.2800   34.4800 C   0  0  0  0  0  0  0  0  0  0  0  0
   24.3100   25.7400   33.5400 O   0  0  0  0  0  0  0  0  0  0  0  0
   26.1800   26.9700   34.4700 C   0  0  0  0  0  0  0  0  0  0  0  0
   26.6500   27.6000   35.5500 N   0  0  0  0  0  0  0  0  0  0  0  0
   27.7900   28.2700   35.6200 N   0  0  0  0  0  0  0  0  0  0  0  0
   28.5400   28.3000   34.5100 C   0  0  0  0  0  0  0  0  0  0  0  0
   29.7700   28.9400   34.5600 C   0  0  0  0  0  0  0  0  0  0  0  0
   30.7000   28.8900   33.5000 C   0  0  0  0  0  0  0  0  0  0  0  0
   30.3700   28.1400   32.3700 C   0  0  0  0  0  0  0  0  0  0  0  0
   29.1200   27.5200   32.2800 C   0  0  0  0  0  0  0  0  0  0  0  0
   28.2100   27.6100   33.3300 C   0  0  0  0  0  0  0  0  0  0  0  0
   26.9700   26.9700   33.3100 C   0  0  0  0  0  0  0  0  0  0  0  0
   26.5300   26.2400   32.2200 N   0  0  0  0  0  0  0  0  0  0  0  0
   22.7777   26.0893   35.8187 C   0  0  0  0  0  0  0  0  0  0  0  0
   22.2296   25.2885   36.7538 N   0  0  0  0  0  0  0  0  0  0  0  0
   20.9023   25.4528   36.6101 C   0  0  0  0  0  0  0  0  0  0  0  0
   20.6404   26.3648   35.6075 C   0  0  0  0  0  0  0  0  0  0  0  0
   19.1780   26.6564   35.1275 C   0  0  0  0  0  0  0  0  0  0  0  0
   18.6978   28.0677   35.3636 N   0  0  0  0  0  0  0  0  0  0  0  0
   18.2323   28.8851   34.1770 C   0  0  0  0  0  0  0  0  0  0  0  0
   19.1425   30.1678   33.8755 C   0  0  0  0  0  0  0  0  0  0  0  0
   20.5520   29.8974   33.4039 N   0  0  0  0  0  0  0  0  0  0  0  0
   21.4213   31.0540   33.6554 C   0  0  0  0  0  0  0  0  0  0  0  0
   20.9766   28.7658   34.1923 C   0  0  0  0  0  0  0  0  0  0  0  0
   22.1987   27.9251   34.1827 C   0  0  0  0  0  0  0  0  0  0  0  0
   21.8652   26.7837   35.0951 N   0  0  0  0  0  0  0  0  0  0  0  0
   17.9051   28.2580   36.5941 C   0  0  0  0  0  0  0  0  0  0  0  0
   16.5196   27.5988   36.5376 C   0  0  0  0  0  0  0  0  0  0  0  0
  1  2  1  0
  2  3  2  0
  2  4  1  0
  4  5  2  0
  5  6  1  0
  6  7  2  0
  7  8  1  0
  8  9  2  0
  9 10  1  0
 10 11  2  0
 11 12  1  0
 12 13  2  0
 13 14  1  0
  1 15  1  0
 15 16  2  0
 16 17  1  0
 17 18  2  0
 18 19  1  0
 19 20  1  0
 20 21  1  0
 21 22  1  0
 22 23  1  0
 23 24  1  0
 23 25  1  0
 25 26  1  0
 26 27  1  0
 20 28  1  0
 28 29  1  0
 13  4  1  0
 27 15  1  0
 12  7  1  0
 27 18  1  0
M  END
>  <AAScore>  (1) 
382.08962459284857

>  <RootName>  (1) 
./4ZLY/04_DeltaGEst/trajectory_04/rank_00/lead_0345

$$$$
