confid_14
     RDKit          3D

 29 32  0  0  0  0  0  0  0  0999 V2000
   24.2000   26.2400   35.6900 N   0  0  0  0  0  0  0  0  0  0  0  0
   24.8500   26.2800   34.4800 C   0  0  0  0  0  0  0  0  0  0  0  0
   24.3100   25.7400   33.5400 O   0  0  0  0  0  0  0  0  0  0  0  0
   26.1800   26.9700   34.4700 C   0  0  0  0  0  0  0  0  0  0  0  0
   26.6500   27.6000   35.5500 N   0  0  0  0  0  0  0  0  0  0  0  0
   27.7900   28.2700   35.6200 N   0  0  0  0  0  0  0  0  0  0  0  0
   28.5400   28.3000   34.5100 C   0  0  0  0  0  0  0  0  0  0  0  0
   29.7700   28.9400   34.5600 C   0  0  0  0  0  0  0  0  0  0  0  0
   30.7000   28.8900   33.5000 C   0  0  0  0  0  0  0  0  0  0  0  0
   30.3700   28.1400   32.3700 C   0  0  0  0  0  0  0  0  0  0  0  0
   29.1200   27.5200   32.2800 C   0  0  0  0  0  0  0  0  0  0  0  0
   28.2100   27.6100   33.3300 C   0  0  0  0  0  0  0  0  0  0  0  0
   26.9700   26.9700   33.3100 C   0  0  0  0  0  0  0  0  0  0  0  0
   26.5300   26.2400   32.2200 N   0  0  0  0  0  0  0  0  0  0  0  0
   23.2658   25.2107   36.0568 C   0  0  0  0  0  0  0  0  0  0  0  0
   22.1422   25.5694   36.6077 N   0  0  0  0  0  0  0  0  0  0  0  0
   21.1515   24.6659   37.1054 C   0  0  0  0  0  0  0  0  0  0  0  0
   19.9299   24.5418   36.5508 C   0  0  0  0  0  0  0  0  0  0  0  0
   18.9055   23.7295   37.3053 C   0  0  0  0  0  0  0  0  0  0  0  0
   17.6623   23.5871   36.5268 N   0  0  0  0  0  0  0  0  0  0  0  0
   17.1882   24.9152   36.1121 C   0  0  0  0  0  0  0  0  0  0  0  0
   18.1215   25.4766   35.0388 C   0  0  0  0  0  0  0  0  0  0  0  0
   19.5426   25.1790   35.3000 N   0  0  0  0  0  0  0  0  0  0  0  0
   20.4835   25.4231   34.1868 C   0  0  0  0  0  0  0  0  0  0  0  0
   21.0502   24.1213   33.6012 C   0  0  0  0  0  0  0  0  0  0  0  0
   21.5562   23.2676   34.6149 O   0  0  0  0  0  0  0  0  0  0  0  0
   22.9699   23.1289   34.5909 C   0  0  0  0  0  0  0  0  0  0  0  0
   23.6158   23.7504   35.8398 C   0  0  0  0  0  0  0  0  0  0  0  0
   16.6382   22.9140   37.3418 C   0  0  0  0  0  0  0  0  0  0  0  0
  1  2  1  0
  2  3  2  0
  2  4  1  0
  4  5  2  0
  5  6  1  0
  6  7  2  0
  7  8  1  0
  8  9  2  0
  9 10  1  0
 10 11  2  0
 11 12  1  0
 12 13  2  0
 13 14  1  0
  1 15  1  0
 15 16  2  0
 16 17  1  0
 17 18  2  0
 18 19  1  0
 19 20  1  0
 20 21  1  0
 21 22  1  0
 22 23  1  0
 23 24  1  0
 24 25  1  0
 25 26  1  0
 26 27  1  0
 27 28  1  0
 20 29  1  0
 13  4  1  0
 28 15  1  0
 12  7  1  0
 23 18  1  0
M  END
>  <AAScore>  (1) 
6740.23976157749

>  <RootName>  (1) 
./4ZLY/04_DeltaGEst/trajectory_04/rank_00/lead_0317

$$$$
