confid_5
     RDKit          3D

 29 32  0  0  0  0  0  0  0  0999 V2000
   24.6900   26.1200   35.5300 N   0  0  0  0  0  0  0  0  0  0  0  0
   25.6600   25.6700   34.6600 C   0  0  0  0  0  0  0  0  0  0  0  0
   25.2400   25.0100   33.7200 O   0  0  0  0  0  0  0  0  0  0  0  0
   27.0300   26.2200   34.8800 C   0  0  0  0  0  0  0  0  0  0  0  0
   27.3500   26.7300   36.0700 N   0  0  0  0  0  0  0  0  0  0  0  0
   28.5700   27.1800   36.3300 N   0  0  0  0  0  0  0  0  0  0  0  0
   29.5300   27.1100   35.3900 C   0  0  0  0  0  0  0  0  0  0  0  0
   30.8300   27.5700   35.6500 C   0  0  0  0  0  0  0  0  0  0  0  0
   31.8500   27.5400   34.6900 C   0  0  0  0  0  0  0  0  0  0  0  0
   31.5100   27.1200   33.4000 C   0  0  0  0  0  0  0  0  0  0  0  0
   30.2200   26.6300   33.1100 C   0  0  0  0  0  0  0  0  0  0  0  0
   29.2400   26.6600   34.1000 C   0  0  0  0  0  0  0  0  0  0  0  0
   27.9300   26.2600   33.8100 C   0  0  0  0  0  0  0  0  0  0  0  0
   27.5200   25.7100   32.6100 N   0  0  0  0  0  0  0  0  0  0  0  0
   31.1464   28.0502   36.9648 N   0  0  0  0  0  0  0  0  0  0  0  0
   32.0427   27.2654   37.8206 C   0  0  0  0  0  0  0  0  0  0  0  0
   31.8753   27.6633   39.2892 C   0  0  0  0  0  0  0  0  0  0  0  0
   30.4720   28.0476   39.5222 N   0  0  0  0  0  0  0  0  0  0  0  0
   30.1176   28.0580   40.9598 C   0  0  0  0  0  0  0  0  0  0  0  0
   29.0369   27.0070   41.2320 C   0  0  0  0  0  0  0  0  0  0  0  0
   29.4749   25.6380   40.7779 C   0  0  0  0  0  0  0  0  0  0  0  0
   30.3055   24.8528   41.5936 C   0  0  0  0  0  0  0  0  0  0  0  0
   30.7692   23.6138   41.1406 C   0  0  0  0  0  0  0  0  0  0  0  0
   30.4153   23.1545   39.8674 C   0  0  0  0  0  0  0  0  0  0  0  0
   31.0066   21.6050   39.2971 Cl  0  0  0  0  0  0  0  0  0  0  0  0
   29.5949   23.9353   39.0469 C   0  0  0  0  0  0  0  0  0  0  0  0
   29.1271   25.1724   39.4984 C   0  0  0  0  0  0  0  0  0  0  0  0
   30.1600   29.3295   38.8572 C   0  0  0  0  0  0  0  0  0  0  0  0
   30.6702   29.3686   37.3999 C   0  0  0  0  0  0  0  0  0  0  0  0
  1  2  1  0
  2  3  2  0
  2  4  1  0
  4  5  2  0
  5  6  1  0
  6  7  2  0
  7  8  1  0
  8  9  2  0
  9 10  1  0
 10 11  2  0
 11 12  1  0
 12 13  2  0
 13 14  1  0
  8 15  1  0
 15 16  1  0
 16 17  1  0
 17 18  1  0
 18 19  1  0
 19 20  1  0
 20 21  1  0
 21 22  2  0
 22 23  1  0
 23 24  2  0
 24 25  1  0
 24 26  1  0
 26 27  2  0
 18 28  1  0
 28 29  1  0
 13  4  1  0
 29 15  1  0
 12  7  1  0
 27 21  1  0
M  END
>  <AAScore>  (1) 
38.0590957239608

>  <RootName>  (1) 
./4ZLY/04_DeltaGEst/trajectory_02/rank_01/lead_0359

$$$$
