confid_3
     RDKit          3D

 27 30  0  0  0  0  0  0  0  0999 V2000
   24.2000   26.2400   35.6900 N   0  0  0  0  0  0  0  0  0  0  0  0
   24.8500   26.2800   34.4800 C   0  0  0  0  0  0  0  0  0  0  0  0
   24.3100   25.7400   33.5400 O   0  0  0  0  0  0  0  0  0  0  0  0
   26.1800   26.9700   34.4700 C   0  0  0  0  0  0  0  0  0  0  0  0
   26.6500   27.6000   35.5500 N   0  0  0  0  0  0  0  0  0  0  0  0
   27.7900   28.2700   35.6200 N   0  0  0  0  0  0  0  0  0  0  0  0
   28.5400   28.3000   34.5100 C   0  0  0  0  0  0  0  0  0  0  0  0
   29.7700   28.9400   34.5600 C   0  0  0  0  0  0  0  0  0  0  0  0
   30.7000   28.8900   33.5000 C   0  0  0  0  0  0  0  0  0  0  0  0
   30.3700   28.1400   32.3700 C   0  0  0  0  0  0  0  0  0  0  0  0
   29.1200   27.5200   32.2800 C   0  0  0  0  0  0  0  0  0  0  0  0
   28.2100   27.6100   33.3300 C   0  0  0  0  0  0  0  0  0  0  0  0
   26.9700   26.9700   33.3100 C   0  0  0  0  0  0  0  0  0  0  0  0
   26.5300   26.2400   32.2200 N   0  0  0  0  0  0  0  0  0  0  0  0
   23.2179   25.2403   36.0286 C   0  0  0  0  0  0  0  0  0  0  0  0
   23.2883   24.0028   35.4454 N   0  0  0  0  0  0  0  0  0  0  0  0
   22.4193   22.9998   35.7464 C   0  0  0  0  0  0  0  0  0  0  0  0
   21.4279   23.2345   36.6900 C   0  0  0  0  0  0  0  0  0  0  0  0
   20.3988   22.2896   37.1833 C   0  0  0  0  0  0  0  0  0  0  0  0
   19.6576   23.0937   38.1548 N   0  0  0  0  0  0  0  0  0  0  0  0
   18.5381   22.6168   38.9172 C   0  0  0  0  0  0  0  0  0  0  0  0
   17.9445   23.3935   39.7128 O   0  0  0  0  0  0  0  0  0  0  0  0
   18.0602   21.2053   38.7808 C   0  0  0  0  0  0  0  0  0  0  0  0
   20.1857   24.4540   38.2641 C   0  0  0  0  0  0  0  0  0  0  0  0
   21.3191   24.4609   37.2984 C   0  0  0  0  0  0  0  0  0  0  0  0
   22.2020   25.5075   36.9847 C   0  0  0  0  0  0  0  0  0  0  0  0
   22.0829   26.8513   37.6534 C   0  0  0  0  0  0  0  0  0  0  0  0
  1  2  1  0
  2  3  2  0
  2  4  1  0
  4  5  2  0
  5  6  1  0
  6  7  2  0
  7  8  1  0
  8  9  2  0
  9 10  1  0
 10 11  2  0
 11 12  1  0
 12 13  2  0
 13 14  1  0
  1 15  1  0
 15 16  2  0
 16 17  1  0
 17 18  2  0
 18 19  1  0
 19 20  1  0
 20 21  1  0
 21 22  2  0
 21 23  1  0
 20 24  1  0
 24 25  1  0
 25 26  2  0
 26 27  1  0
 13  4  1  0
 26 15  1  0
 12  7  1  0
 25 18  1  0
M  END
>  <AAScore>  (1) 
5480.250174736974

>  <RootName>  (1) 
./4ZLY/04_DeltaGEst/trajectory_04/rank_00/lead_0304

$$$$
