confid_0
     RDKit          3D

 28 31  0  0  0  0  0  0  0  0999 V2000
   24.2000   26.2400   35.6900 N   0  0  0  0  0  0  0  0  0  0  0  0
   24.8500   26.2800   34.4800 C   0  0  0  0  0  0  0  0  0  0  0  0
   24.3100   25.7400   33.5400 O   0  0  0  0  0  0  0  0  0  0  0  0
   26.1800   26.9700   34.4700 C   0  0  0  0  0  0  0  0  0  0  0  0
   26.6500   27.6000   35.5500 N   0  0  0  0  0  0  0  0  0  0  0  0
   27.7900   28.2700   35.6200 N   0  0  0  0  0  0  0  0  0  0  0  0
   28.5400   28.3000   34.5100 C   0  0  0  0  0  0  0  0  0  0  0  0
   29.7700   28.9400   34.5600 C   0  0  0  0  0  0  0  0  0  0  0  0
   30.7000   28.8900   33.5000 C   0  0  0  0  0  0  0  0  0  0  0  0
   30.3700   28.1400   32.3700 C   0  0  0  0  0  0  0  0  0  0  0  0
   29.1200   27.5200   32.2800 C   0  0  0  0  0  0  0  0  0  0  0  0
   28.2100   27.6100   33.3300 C   0  0  0  0  0  0  0  0  0  0  0  0
   26.9700   26.9700   33.3100 C   0  0  0  0  0  0  0  0  0  0  0  0
   26.5300   26.2400   32.2200 N   0  0  0  0  0  0  0  0  0  0  0  0
   30.1391   29.6762   35.7364 N   0  0  0  0  0  0  0  0  0  0  0  0
   29.5428   30.9952   35.9768 C   0  0  0  0  0  0  0  0  0  0  0  0
   30.0181   31.5932   37.3056 C   0  0  0  0  0  0  0  0  0  0  0  0
   31.4783   31.4617   37.4424 N   0  0  0  0  0  0  0  0  0  0  0  0
   32.2341   32.5118   38.0899 C   0  0  0  0  0  0  0  0  0  0  0  0
   33.6295   32.6082   37.9450 C   0  0  0  0  0  0  0  0  0  0  0  0
   34.3184   33.6469   38.5718 C   0  0  0  0  0  0  0  0  0  0  0  0
   33.6281   34.5821   39.3442 C   0  0  0  0  0  0  0  0  0  0  0  0
   34.5242   35.8845   40.1168 Cl  0  0  0  0  0  0  0  0  0  0  0  0
   32.2339   34.4609   39.4772 C   0  0  0  0  0  0  0  0  0  0  0  0
   31.5867   33.4432   38.8467 N   0  0  0  0  0  0  0  0  0  0  0  0
   31.4363   35.4495   40.2719 C   0  0  0  0  0  0  0  0  0  0  0  0
   32.1403   30.2042   37.0473 C   0  0  0  0  0  0  0  0  0  0  0  0
   31.1273   29.1228   36.6648 C   0  0  0  0  0  0  0  0  0  0  0  0
  1  2  1  0
  2  3  2  0
  2  4  1  0
  4  5  2  0
  5  6  1  0
  6  7  2  0
  7  8  1  0
  8  9  2  0
  9 10  1  0
 10 11  2  0
 11 12  1  0
 12 13  2  0
 13 14  1  0
  8 15  1  0
 15 16  1  0
 16 17  1  0
 17 18  1  0
 18 19  1  0
 19 20  2  0
 20 21  1  0
 21 22  2  0
 22 23  1  0
 22 24  1  0
 24 25  2  0
 24 26  1  0
 18 27  1  0
 27 28  1  0
 13  4  1  0
 28 15  1  0
 12  7  1  0
 25 19  1  0
M  END
>  <AAScore>  (1) 
-8.36404206481095

>  <RootName>  (1) 
./4ZLY/04_DeltaGEst/trajectory_04/rank_01/lead_0034

$$$$
