confid_18
     RDKit          3D

 29 32  0  0  0  0  0  0  0  0999 V2000
   24.6900   26.1200   35.5300 N   0  0  0  0  0  0  0  0  0  0  0  0
   25.6600   25.6700   34.6600 C   0  0  0  0  0  0  0  0  0  0  0  0
   25.2400   25.0100   33.7200 O   0  0  0  0  0  0  0  0  0  0  0  0
   27.0300   26.2200   34.8800 C   0  0  0  0  0  0  0  0  0  0  0  0
   27.3500   26.7300   36.0700 N   0  0  0  0  0  0  0  0  0  0  0  0
   28.5700   27.1800   36.3300 N   0  0  0  0  0  0  0  0  0  0  0  0
   29.5300   27.1100   35.3900 C   0  0  0  0  0  0  0  0  0  0  0  0
   30.8300   27.5700   35.6500 C   0  0  0  0  0  0  0  0  0  0  0  0
   31.8500   27.5400   34.6900 C   0  0  0  0  0  0  0  0  0  0  0  0
   31.5100   27.1200   33.4000 C   0  0  0  0  0  0  0  0  0  0  0  0
   30.2200   26.6300   33.1100 C   0  0  0  0  0  0  0  0  0  0  0  0
   29.2400   26.6600   34.1000 C   0  0  0  0  0  0  0  0  0  0  0  0
   27.9300   26.2600   33.8100 C   0  0  0  0  0  0  0  0  0  0  0  0
   27.5200   25.7100   32.6100 N   0  0  0  0  0  0  0  0  0  0  0  0
   31.1749   28.1077   36.9913 C   0  0  0  0  0  0  0  0  0  0  0  0
   30.4415   29.1614   37.5544 C   0  0  0  0  0  0  0  0  0  0  0  0
   30.7805   29.6614   38.8180 C   0  0  0  0  0  0  0  0  0  0  0  0
   30.0157   30.7936   39.4219 C   0  0  0  0  0  0  0  0  0  0  0  0
   29.9146   30.5838   40.9265 C   0  0  0  0  0  0  0  0  0  0  0  0
   31.2513   30.4511   41.5334 N   0  0  0  0  0  0  0  0  0  0  0  0
   31.4196   30.9258   42.8921 C   0  0  0  0  0  0  0  0  0  0  0  0
   32.5235   31.4014   43.2694 O   0  0  0  0  0  0  0  0  0  0  0  0
   30.2832   30.9039   43.8698 C   0  0  0  0  0  0  0  0  0  0  0  0
   32.3491   29.7144   40.8340 C   0  0  0  0  0  0  0  0  0  0  0  0
   33.5077   30.6801   40.5087 C   0  0  0  0  0  0  0  0  0  0  0  0
   32.8599   28.5685   41.7393 C   0  0  0  0  0  0  0  0  0  0  0  0
   31.8778   29.1174   39.5052 C   0  0  0  0  0  0  0  0  0  0  0  0
   32.5933   28.1149   38.9191 N   0  0  0  0  0  0  0  0  0  0  0  0
   32.2679   27.5985   37.7056 C   0  0  0  0  0  0  0  0  0  0  0  0
  1  2  1  0
  2  3  2  0
  2  4  1  0
  4  5  2  0
  5  6  1  0
  6  7  2  0
  7  8  1  0
  8  9  2  0
  9 10  1  0
 10 11  2  0
 11 12  1  0
 12 13  2  0
 13 14  1  0
  8 15  1  0
 15 16  2  0
 16 17  1  0
 17 18  1  0
 18 19  1  0
 19 20  1  0
 20 21  1  0
 21 22  2  0
 21 23  1  0
 20 24  1  0
 24 25  1  0
 24 26  1  0
 24 27  1  0
 27 28  1  0
 28 29  2  0
 13  4  1  0
 29 15  1  0
 12  7  1  0
 27 17  2  0
M  END
>  <AAScore>  (1) 
559.0961722362559

>  <RootName>  (1) 
./4ZLY/04_DeltaGEst/trajectory_02/rank_01/lead_0233

$$$$
