confid_15
     RDKit          3D

 28 31  0  0  0  0  0  0  0  0999 V2000
   24.6900   26.1200   35.5300 N   0  0  0  0  0  0  0  0  0  0  0  0
   25.6600   25.6700   34.6600 C   0  0  0  0  0  0  0  0  0  0  0  0
   25.2400   25.0100   33.7200 O   0  0  0  0  0  0  0  0  0  0  0  0
   27.0300   26.2200   34.8800 C   0  0  0  0  0  0  0  0  0  0  0  0
   27.3500   26.7300   36.0700 N   0  0  0  0  0  0  0  0  0  0  0  0
   28.5700   27.1800   36.3300 N   0  0  0  0  0  0  0  0  0  0  0  0
   29.5300   27.1100   35.3900 C   0  0  0  0  0  0  0  0  0  0  0  0
   30.8300   27.5700   35.6500 C   0  0  0  0  0  0  0  0  0  0  0  0
   31.8500   27.5400   34.6900 C   0  0  0  0  0  0  0  0  0  0  0  0
   31.5100   27.1200   33.4000 C   0  0  0  0  0  0  0  0  0  0  0  0
   30.2200   26.6300   33.1100 C   0  0  0  0  0  0  0  0  0  0  0  0
   29.2400   26.6600   34.1000 C   0  0  0  0  0  0  0  0  0  0  0  0
   27.9300   26.2600   33.8100 C   0  0  0  0  0  0  0  0  0  0  0  0
   27.5200   25.7100   32.6100 N   0  0  0  0  0  0  0  0  0  0  0  0
   23.3559   25.5873   35.5631 C   0  0  0  0  0  0  0  0  0  0  0  0
   22.3724   26.3564   35.2124 N   0  0  0  0  0  0  0  0  0  0  0  0
   21.0141   25.9080   35.1583 C   0  0  0  0  0  0  0  0  0  0  0  0
   20.6663   24.6755   35.5473 C   0  0  0  0  0  0  0  0  0  0  0  0
   19.3361   24.3007   35.2753 O   0  0  0  0  0  0  0  0  0  0  0  0
   18.6298   23.0957   35.5772 C   0  0  0  0  0  0  0  0  0  0  0  0
   19.2027   21.8922   34.9437 N   0  0  0  0  0  0  0  0  0  0  0  0
   19.8587   20.9495   35.8683 C   0  0  0  0  0  0  0  0  0  0  0  0
   21.2635   21.3720   36.3170 C   0  0  0  0  0  0  0  0  0  0  0  0
   21.3018   22.7156   37.0599 C   0  0  0  0  0  0  0  0  0  0  0  0
   21.6694   23.8108   36.1491 N   0  0  0  0  0  0  0  0  0  0  0  0
   23.0662   24.1963   36.0056 C   0  0  0  0  0  0  0  0  0  0  0  0
   24.0683   23.3469   36.2911 C   0  0  0  0  0  0  0  0  0  0  0  0
   19.8916   22.1023   33.6616 C   0  0  0  0  0  0  0  0  0  0  0  0
  1  2  1  0
  2  3  2  0
  2  4  1  0
  4  5  2  0
  5  6  1  0
  6  7  2  0
  7  8  1  0
  8  9  2  0
  9 10  1  0
 10 11  2  0
 11 12  1  0
 12 13  2  0
 13 14  1  0
  1 15  1  0
 15 16  2  0
 16 17  1  0
 17 18  2  0
 18 19  1  0
 19 20  1  0
 20 21  1  0
 21 22  1  0
 22 23  1  0
 23 24  1  0
 24 25  1  0
 25 26  1  0
 26 27  2  3
 21 28  1  0
 13  4  1  0
 26 15  1  0
 12  7  1  0
 25 18  1  0
M  END
>  <AAScore>  (1) 
7776.359279377393

>  <RootName>  (1) 
./4ZLY/04_DeltaGEst/trajectory_02/rank_00/lead_0028

$$$$
