confid_5
     RDKit          3D

 29 33  0  0  0  0  0  0  0  0999 V2000
   24.5700   26.8800   35.5900 N   0  0  0  0  0  0  0  0  0  0  0  0
   25.5000   26.4000   34.6900 C   0  0  0  0  0  0  0  0  0  0  0  0
   25.1700   25.5200   33.9100 O   0  0  0  0  0  0  0  0  0  0  0  0
   26.8400   27.0200   34.7400 C   0  0  0  0  0  0  0  0  0  0  0  0
   27.3800   27.2800   35.9400 N   0  0  0  0  0  0  0  0  0  0  0  0
   28.6200   27.7400   36.0300 N   0  0  0  0  0  0  0  0  0  0  0  0
   29.3800   28.0000   34.9600 C   0  0  0  0  0  0  0  0  0  0  0  0
   30.6700   28.5000   35.1300 C   0  0  0  0  0  0  0  0  0  0  0  0
   31.5400   28.6100   34.0300 C   0  0  0  0  0  0  0  0  0  0  0  0
   31.0900   28.2200   32.7700 C   0  0  0  0  0  0  0  0  0  0  0  0
   29.8000   27.7000   32.6000 C   0  0  0  0  0  0  0  0  0  0  0  0
   28.9600   27.5500   33.7100 C   0  0  0  0  0  0  0  0  0  0  0  0
   27.6600   27.0300   33.5900 C   0  0  0  0  0  0  0  0  0  0  0  0
   27.1600   26.7400   32.3400 N   0  0  0  0  0  0  0  0  0  0  0  0
   23.1500   26.7283   35.4312 C   0  0  0  0  0  0  0  0  0  0  0  0
   22.4034   26.6265   36.4908 N   0  0  0  0  0  0  0  0  0  0  0  0
   20.9782   26.4763   36.4284 C   0  0  0  0  0  0  0  0  0  0  0  0
   20.3331   26.4547   35.2535 C   0  0  0  0  0  0  0  0  0  0  0  0
   18.8338   26.2981   35.2058 C   0  0  2  0  0  0  0  0  0  0  0  0
   18.4447   25.6470   33.8756 C   0  0  0  0  0  0  0  0  0  0  0  0
   19.0483   26.3850   32.7566 N   0  0  0  0  0  0  0  0  0  0  0  0
   18.1846   26.8346   31.6584 C   0  0  0  0  0  0  0  0  0  0  0  0
   18.8574   26.6203   30.3157 C   0  0  0  0  0  0  0  0  0  0  0  0
   20.2616   27.7549   30.1950 S   0  0  0  0  0  0  0  0  0  0  0  0
   21.2321   26.9508   31.5140 C   0  0  0  0  0  0  0  0  0  0  0  0
   20.4640   26.7115   32.8053 C   0  0  0  0  0  0  0  0  0  0  0  0
   21.1098   26.6479   34.0022 C   0  0  0  0  0  0  0  0  0  0  0  0
   22.5433   26.7470   34.1266 N   0  0  0  0  0  0  0  0  0  0  0  0
   18.1475   27.6584   35.3835 C   0  0  0  0  0  0  0  0  0  0  0  0
  1  2  1  0
  2  3  2  0
  2  4  1  0
  4  5  2  0
  5  6  1  0
  6  7  2  0
  7  8  1  0
  8  9  2  0
  9 10  1  0
 10 11  2  0
 11 12  1  0
 12 13  2  0
 13 14  1  0
  1 15  1  0
 15 16  2  0
 16 17  1  0
 17 18  2  0
 18 19  1  0
 19 20  1  0
 20 21  1  0
 21 22  1  0
 22 23  1  0
 23 24  1  0
 24 25  1  0
 25 26  1  0
 26 27  2  0
 27 28  1  0
 19 29  1  6
 13  4  1  0
 28 15  1  0
 12  7  1  0
 27 18  1  0
 26 21  1  0
M  END
>  <AAScore>  (1) 
410.0755748997333

>  <RootName>  (1) 
./4ZLY/04_DeltaGEst/trajectory_05/rank_00/lead_0233

$$$$
