confid_10
     RDKit          3D

 27 30  0  0  0  0  0  0  0  0999 V2000
   24.2000   26.2400   35.6900 N   0  0  0  0  0  0  0  0  0  0  0  0
   24.8500   26.2800   34.4800 C   0  0  0  0  0  0  0  0  0  0  0  0
   24.3100   25.7400   33.5400 O   0  0  0  0  0  0  0  0  0  0  0  0
   26.1800   26.9700   34.4700 C   0  0  0  0  0  0  0  0  0  0  0  0
   26.6500   27.6000   35.5500 N   0  0  0  0  0  0  0  0  0  0  0  0
   27.7900   28.2700   35.6200 N   0  0  0  0  0  0  0  0  0  0  0  0
   28.5400   28.3000   34.5100 C   0  0  0  0  0  0  0  0  0  0  0  0
   29.7700   28.9400   34.5600 C   0  0  0  0  0  0  0  0  0  0  0  0
   30.7000   28.8900   33.5000 C   0  0  0  0  0  0  0  0  0  0  0  0
   30.3700   28.1400   32.3700 C   0  0  0  0  0  0  0  0  0  0  0  0
   29.1200   27.5200   32.2800 C   0  0  0  0  0  0  0  0  0  0  0  0
   28.2100   27.6100   33.3300 C   0  0  0  0  0  0  0  0  0  0  0  0
   26.9700   26.9700   33.3100 C   0  0  0  0  0  0  0  0  0  0  0  0
   26.5300   26.2400   32.2200 N   0  0  0  0  0  0  0  0  0  0  0  0
   23.2348   25.2257   36.0412 C   0  0  0  0  0  0  0  0  0  0  0  0
   23.2736   24.0198   35.4115 N   0  0  0  0  0  0  0  0  0  0  0  0
   22.4230   23.0090   35.7148 C   0  0  0  0  0  0  0  0  0  0  0  0
   21.4681   23.1661   36.7269 C   0  0  0  0  0  0  0  0  0  0  0  0
   20.4519   22.0801   36.9782 C   0  0  0  0  0  0  0  0  0  0  0  0
   20.5675   21.5611   38.3589 N   0  0  0  0  0  0  0  0  0  0  0  0
   20.0974   20.1659   38.4137 C   0  0  0  0  0  0  0  0  0  0  0  0
   19.7841   22.3825   39.3063 C   0  0  0  0  0  0  0  0  0  0  0  0
   20.4968   23.6961   39.6167 C   0  0  0  0  0  0  0  0  0  0  0  0
   20.5255   24.5629   38.4870 O   0  0  0  0  0  0  0  0  0  0  0  0
   21.4199   24.3859   37.4264 C   0  0  0  0  0  0  0  0  0  0  0  0
   22.2777   25.4443   37.0595 C   0  0  0  0  0  0  0  0  0  0  0  0
   22.2035   26.7683   37.7795 C   0  0  0  0  0  0  0  0  0  0  0  0
  1  2  1  0
  2  3  2  0
  2  4  1  0
  4  5  2  0
  5  6  1  0
  6  7  2  0
  7  8  1  0
  8  9  2  0
  9 10  1  0
 10 11  2  0
 11 12  1  0
 12 13  2  0
 13 14  1  0
  1 15  1  0
 15 16  2  0
 16 17  1  0
 17 18  2  0
 18 19  1  0
 19 20  1  0
 20 21  1  0
 20 22  1  0
 22 23  1  0
 23 24  1  0
 24 25  1  0
 25 26  2  0
 26 27  1  0
 13  4  1  0
 26 15  1  0
 12  7  1  0
 25 18  1  0
M  END
>  <AAScore>  (1) 
599.5080449424213

>  <RootName>  (1) 
./4ZLY/04_DeltaGEst/trajectory_04/rank_00/lead_0155

$$$$
