confid_1
     RDKit          3D

 28 31  0  0  0  0  0  0  0  0999 V2000
   24.5700   26.8800   35.5900 N   0  0  0  0  0  0  0  0  0  0  0  0
   25.5000   26.4000   34.6900 C   0  0  0  0  0  0  0  0  0  0  0  0
   25.1700   25.5200   33.9100 O   0  0  0  0  0  0  0  0  0  0  0  0
   26.8400   27.0200   34.7400 C   0  0  0  0  0  0  0  0  0  0  0  0
   27.3800   27.2800   35.9400 N   0  0  0  0  0  0  0  0  0  0  0  0
   28.6200   27.7400   36.0300 N   0  0  0  0  0  0  0  0  0  0  0  0
   29.3800   28.0000   34.9600 C   0  0  0  0  0  0  0  0  0  0  0  0
   30.6700   28.5000   35.1300 C   0  0  0  0  0  0  0  0  0  0  0  0
   31.5400   28.6100   34.0300 C   0  0  0  0  0  0  0  0  0  0  0  0
   31.0900   28.2200   32.7700 C   0  0  0  0  0  0  0  0  0  0  0  0
   29.8000   27.7000   32.6000 C   0  0  0  0  0  0  0  0  0  0  0  0
   28.9600   27.5500   33.7100 C   0  0  0  0  0  0  0  0  0  0  0  0
   27.6600   27.0300   33.5900 C   0  0  0  0  0  0  0  0  0  0  0  0
   27.1600   26.7400   32.3400 N   0  0  0  0  0  0  0  0  0  0  0  0
   23.1491   26.6997   35.4608 C   0  0  0  0  0  0  0  0  0  0  0  0
   22.3851   26.6029   36.6137 N   0  0  0  0  0  0  0  0  0  0  0  0
   21.0193   26.4579   36.6135 C   0  0  0  0  0  0  0  0  0  0  0  0
   20.4166   26.4234   35.3778 C   0  0  0  0  0  0  0  0  0  0  0  0
   19.2477   26.3239   34.5582 C   0  0  0  0  0  0  0  0  0  0  0  0
   19.9697   26.4576   33.3449 N   0  0  0  0  0  0  0  0  0  0  0  0
   19.7008   26.5259   31.9141 C   0  0  0  0  0  0  0  0  0  0  0  0
   19.2397   25.1601   31.3632 C   0  0  1  0  0  0  0  0  0  0  0  0
   17.7365   24.9266   31.6306 C   0  0  0  0  0  0  0  0  0  0  0  0
   19.6091   25.0451   29.9264 N   0  0  0  0  0  0  0  0  0  0  0  0
   18.7530   25.8271   29.0162 C   0  0  0  0  0  0  0  0  0  0  0  0
   19.6974   23.6450   29.4786 C   0  0  0  0  0  0  0  0  0  0  0  0
   21.1564   26.5345   34.1966 C   0  0  0  0  0  0  0  0  0  0  0  0
   22.5265   26.6840   34.1770 C   0  0  0  0  0  0  0  0  0  0  0  0
  1  2  1  0
  2  3  2  0
  2  4  1  0
  4  5  2  0
  5  6  1  0
  6  7  2  0
  7  8  1  0
  8  9  2  0
  9 10  1  0
 10 11  2  0
 11 12  1  0
 12 13  2  0
 13 14  1  0
  1 15  1  0
 15 16  2  0
 16 17  1  0
 17 18  2  0
 18 19  1  0
 19 20  1  0
 20 21  1  0
 21 22  1  0
 22 23  1  6
 22 24  1  0
 24 25  1  0
 24 26  1  0
 20 27  1  0
 27 28  2  0
 13  4  1  0
 28 15  1  0
 12  7  1  0
 27 18  1  0
M  END
>  <AAScore>  (1) 
159.30603214528605

>  <RootName>  (1) 
./4ZLY/04_DeltaGEst/trajectory_05/rank_00/lead_0069

$$$$
