confid_11
     RDKit          3D

 29 32  0  0  0  0  0  0  0  0999 V2000
   24.5700   26.8800   35.5900 N   0  0  0  0  0  0  0  0  0  0  0  0
   25.5000   26.4000   34.6900 C   0  0  0  0  0  0  0  0  0  0  0  0
   25.1700   25.5200   33.9100 O   0  0  0  0  0  0  0  0  0  0  0  0
   26.8400   27.0200   34.7400 C   0  0  0  0  0  0  0  0  0  0  0  0
   27.3800   27.2800   35.9400 N   0  0  0  0  0  0  0  0  0  0  0  0
   28.6200   27.7400   36.0300 N   0  0  0  0  0  0  0  0  0  0  0  0
   29.3800   28.0000   34.9600 C   0  0  0  0  0  0  0  0  0  0  0  0
   30.6700   28.5000   35.1300 C   0  0  0  0  0  0  0  0  0  0  0  0
   31.5400   28.6100   34.0300 C   0  0  0  0  0  0  0  0  0  0  0  0
   31.0900   28.2200   32.7700 C   0  0  0  0  0  0  0  0  0  0  0  0
   29.8000   27.7000   32.6000 C   0  0  0  0  0  0  0  0  0  0  0  0
   28.9600   27.5500   33.7100 C   0  0  0  0  0  0  0  0  0  0  0  0
   27.6600   27.0300   33.5900 C   0  0  0  0  0  0  0  0  0  0  0  0
   27.1600   26.7400   32.3400 N   0  0  0  0  0  0  0  0  0  0  0  0
   23.5157   26.1085   36.1952 C   0  0  0  0  0  0  0  0  0  0  0  0
   22.6415   26.6750   36.9599 N   0  0  0  0  0  0  0  0  0  0  0  0
   21.8072   25.6573   37.4836 C   0  0  0  0  0  0  0  0  0  0  0  0
   22.1962   24.4577   37.0823 C   0  0  0  0  0  0  0  0  0  0  0  0
   21.3029   23.2598   37.0985 C   0  0  0  0  0  0  0  0  0  0  0  0
   20.5965   23.2355   35.8763 O   0  0  0  0  0  0  0  0  0  0  0  0
   21.2667   22.4836   34.8743 C   0  0  1  0  0  0  0  0  0  0  0  0
   20.5509   22.7349   33.5456 C   0  0  0  0  0  0  0  0  0  0  0  0
   22.7842   22.7951   34.7298 C   0  0  0  0  0  0  0  0  0  0  0  0
   23.0713   24.1826   34.8454 O   0  0  0  0  0  0  0  0  0  0  0  0
   23.3852   24.5981   36.1738 C   0  0  1  0  0  0  0  0  0  0  0  0
   24.6568   23.9333   36.7770 C   0  0  0  0  0  0  0  0  0  0  0  0
   25.1516   24.6992   37.8615 O   0  0  0  0  0  0  0  0  0  0  0  0
   26.2408   24.0444   38.4837 C   0  0  0  0  0  0  0  0  0  0  0  0
   25.7636   23.3010   39.7257 C   0  0  0  0  0  0  0  0  0  0  0  0
  1  2  1  0
  2  3  2  0
  2  4  1  0
  4  5  2  0
  5  6  1  0
  6  7  2  0
  7  8  1  0
  8  9  2  0
  9 10  1  0
 10 11  2  0
 11 12  1  0
 12 13  2  0
 13 14  1  0
  1 15  1  0
 15 16  2  0
 16 17  1  0
 17 18  2  0
 18 19  1  0
 19 20  1  0
 20 21  1  0
 21 22  1  6
 21 23  1  0
 23 24  1  0
 24 25  1  0
 25 26  1  1
 26 27  1  0
 27 28  1  0
 28 29  1  0
 13  4  1  0
 25 15  1  0
 12  7  1  0
 25 18  1  0
M  END
>  <AAScore>  (1) 
882.9249859561864

>  <RootName>  (1) 
./4ZLY/04_DeltaGEst/trajectory_05/rank_00/lead_0084

$$$$
