confid_1
     RDKit          3D

 27 30  0  0  0  0  0  0  0  0999 V2000
   24.4800   26.1000   36.1300 N   0  0  0  0  0  0  0  0  0  0  0  0
   25.2500   26.2500   34.9900 C   0  0  0  0  0  0  0  0  0  0  0  0
   24.7400   25.7600   33.9900 O   0  0  0  0  0  0  0  0  0  0  0  0
   26.5900   26.8900   34.9600 C   0  0  0  0  0  0  0  0  0  0  0  0
   27.0600   27.2400   36.1600 N   0  0  0  0  0  0  0  0  0  0  0  0
   28.3000   27.7100   36.2400 N   0  0  0  0  0  0  0  0  0  0  0  0
   29.0500   27.9600   35.1500 C   0  0  0  0  0  0  0  0  0  0  0  0
   30.3400   28.4900   35.2600 C   0  0  0  0  0  0  0  0  0  0  0  0
   31.1100   28.8200   34.1400 C   0  0  0  0  0  0  0  0  0  0  0  0
   30.5200   28.6700   32.8800 C   0  0  0  0  0  0  0  0  0  0  0  0
   29.2900   28.0200   32.7700 C   0  0  0  0  0  0  0  0  0  0  0  0
   28.5200   27.7100   33.8900 C   0  0  0  0  0  0  0  0  0  0  0  0
   27.2700   27.0800   33.7600 C   0  0  0  0  0  0  0  0  0  0  0  0
   26.7500   26.8800   32.4900 N   0  0  0  0  0  0  0  0  0  0  0  0
   23.5265   25.0424   36.3540 C   0  0  0  0  0  0  0  0  0  0  0  0
   22.4033   25.2917   37.1480 C   0  0  0  0  0  0  0  0  0  0  0  0
   21.4792   24.2797   37.4078 C   0  0  0  0  0  0  0  0  0  0  0  0
   20.3512   24.5640   38.1876 O   0  0  0  0  0  0  0  0  0  0  0  0
   19.4686   23.5399   38.6450 C   0  0  0  0  0  0  0  0  0  0  0  0
   19.3252   22.4553   37.5782 C   0  0  0  0  0  0  0  0  0  0  0  0
   20.6602   21.9846   37.1824 N   0  0  0  0  0  0  0  0  0  0  0  0
   21.6641   22.9855   36.8817 C   0  0  0  0  0  0  0  0  0  0  0  0
   22.7967   22.7203   36.0747 C   0  0  0  0  0  0  0  0  0  0  0  0
   23.7284   23.7517   35.8369 C   0  0  0  0  0  0  0  0  0  0  0  0
   22.9648   21.4460   35.5100 O   0  0  0  0  0  0  0  0  0  0  0  0
   24.0540   21.0598   34.6779 C   0  0  0  0  0  0  0  0  0  0  0  0
   20.9925   20.5599   37.2957 C   0  0  0  0  0  0  0  0  0  0  0  0
  1  2  1  0
  2  3  2  0
  2  4  1  0
  4  5  2  0
  5  6  1  0
  6  7  2  0
  7  8  1  0
  8  9  2  0
  9 10  1  0
 10 11  2  0
 11 12  1  0
 12 13  2  0
 13 14  1  0
  1 15  1  0
 15 16  2  0
 16 17  1  0
 17 18  1  0
 18 19  1  0
 19 20  1  0
 20 21  1  0
 21 22  1  0
 22 23  1  0
 23 24  2  0
 23 25  1  0
 25 26  1  0
 21 27  1  0
 13  4  1  0
 24 15  1  0
 12  7  1  0
 22 17  2  0
M  END
>  <AAScore>  (1) 
2001.078171458982

>  <RootName>  (1) 
./4ZLY/04_DeltaGEst/trajectory_00/rank_00/lead_0403

$$$$
