confid_9
     RDKit          3D

 28 31  0  0  0  0  0  0  0  0999 V2000
   25.3300   26.2600   34.7600 N   0  0  0  0  0  0  0  0  0  0  0  0
   26.1200   25.9200   33.6900 C   0  0  0  0  0  0  0  0  0  0  0  0
   25.6300   25.1100   32.9400 O   0  0  0  0  0  0  0  0  0  0  0  0
   27.5200   26.3800   33.4600 C   0  0  0  0  0  0  0  0  0  0  0  0
   28.1600   26.6300   34.6100 N   0  0  0  0  0  0  0  0  0  0  0  0
   29.4800   26.8500   34.5700 N   0  0  0  0  0  0  0  0  0  0  0  0
   30.1900   26.7800   33.4400 C   0  0  0  0  0  0  0  0  0  0  0  0
   31.5600   27.0500   33.5000 C   0  0  0  0  0  0  0  0  0  0  0  0
   32.2700   27.2400   32.3100 C   0  0  0  0  0  0  0  0  0  0  0  0
   31.6100   27.2500   31.0800 C   0  0  0  0  0  0  0  0  0  0  0  0
   30.2700   26.8700   31.0600 C   0  0  0  0  0  0  0  0  0  0  0  0
   29.5100   26.6900   32.2300 C   0  0  0  0  0  0  0  0  0  0  0  0
   28.1400   26.4100   32.2000 C   0  0  0  0  0  0  0  0  0  0  0  0
   27.4300   26.1300   31.0500 N   0  0  0  0  0  0  0  0  0  0  0  0
   26.6355   27.1817   30.4123 C   0  0  0  0  0  0  0  0  0  0  0  0
   26.5523   26.9244   28.9057 C   0  0  0  0  0  0  0  0  0  0  0  0
   25.9682   25.5982   28.5958 N   0  0  0  0  0  0  0  0  0  0  0  0
   26.2737   25.2150   27.2019 C   0  0  0  0  0  0  0  0  0  0  0  0
   25.2648   24.2286   26.6995 C   0  0  0  0  0  0  0  0  0  0  0  0
   25.4853   22.9162   26.3316 C   0  0  0  0  0  0  0  0  0  0  0  0
   24.3178   22.3654   25.9444 N   0  0  0  0  0  0  0  0  0  0  0  0
   23.3766   23.2922   26.0607 N   0  0  0  0  0  0  0  0  0  0  0  0
   21.9652   23.0798   25.7306 C   0  0  0  0  0  0  0  0  0  0  0  0
   21.8164   22.7500   24.2428 C   0  0  0  0  0  0  0  0  0  0  0  0
   21.3802   21.9656   26.6034 C   0  0  0  0  0  0  0  0  0  0  0  0
   23.9153   24.4384   26.5181 C   0  0  0  0  0  0  0  0  0  0  0  0
   26.3198   24.5205   29.5633 C   0  0  0  0  0  0  0  0  0  0  0  0
   27.5731   24.8265   30.3949 C   0  0  0  0  0  0  0  0  0  0  0  0
  1  2  1  0
  2  3  2  0
  2  4  1  0
  4  5  2  0
  5  6  1  0
  6  7  2  0
  7  8  1  0
  8  9  2  0
  9 10  1  0
 10 11  2  0
 11 12  1  0
 12 13  2  0
 13 14  1  0
 14 15  1  0
 15 16  1  0
 16 17  1  0
 17 18  1  0
 18 19  1  0
 19 20  1  0
 20 21  2  0
 21 22  1  0
 22 23  1  0
 23 24  1  0
 23 25  1  0
 22 26  1  0
 17 27  1  0
 27 28  1  0
 13  4  1  0
 28 14  1  0
 12  7  1  0
 26 19  2  0
M  END
>  <AAScore>  (1) 
47.10058724123748

>  <RootName>  (1) 
./4ZLY/04_DeltaGEst/trajectory_03/rank_01/lead_0001

$$$$
