confid_2
     RDKit          3D

 30 34  0  0  0  0  0  0  0  0999 V2000
   24.2000   26.2400   35.6900 N   0  0  0  0  0  0  0  0  0  0  0  0
   24.8500   26.2800   34.4800 C   0  0  0  0  0  0  0  0  0  0  0  0
   24.3100   25.7400   33.5400 O   0  0  0  0  0  0  0  0  0  0  0  0
   26.1800   26.9700   34.4700 C   0  0  0  0  0  0  0  0  0  0  0  0
   26.6500   27.6000   35.5500 N   0  0  0  0  0  0  0  0  0  0  0  0
   27.7900   28.2700   35.6200 N   0  0  0  0  0  0  0  0  0  0  0  0
   28.5400   28.3000   34.5100 C   0  0  0  0  0  0  0  0  0  0  0  0
   29.7700   28.9400   34.5600 C   0  0  0  0  0  0  0  0  0  0  0  0
   30.7000   28.8900   33.5000 C   0  0  0  0  0  0  0  0  0  0  0  0
   30.3700   28.1400   32.3700 C   0  0  0  0  0  0  0  0  0  0  0  0
   29.1200   27.5200   32.2800 C   0  0  0  0  0  0  0  0  0  0  0  0
   28.2100   27.6100   33.3300 C   0  0  0  0  0  0  0  0  0  0  0  0
   26.9700   26.9700   33.3100 C   0  0  0  0  0  0  0  0  0  0  0  0
   26.5300   26.2400   32.2200 N   0  0  0  0  0  0  0  0  0  0  0  0
   23.1411   25.3167   36.0078 C   0  0  0  0  0  0  0  0  0  0  0  0
   22.8207   24.2467   35.2418 N   0  0  0  0  0  0  0  0  0  0  0  0
   21.8406   23.6225   35.9303 C   0  0  0  0  0  0  0  0  0  0  0  0
   21.6019   24.3135   37.0963 C   0  0  0  0  0  0  0  0  0  0  0  0
   20.6090   23.9926   38.1684 C   0  0  0  0  0  0  0  0  0  0  0  0
   20.8487   24.8489   39.3375 N   0  0  0  0  0  0  0  0  0  0  0  0
   21.2428   26.2499   39.1265 C   0  0  0  0  0  0  0  0  0  0  0  0
   22.5062   26.3225   38.2561 C   0  0  0  0  0  0  0  0  0  0  0  0
   22.4016   25.3884   37.1348 N   0  0  0  0  0  0  0  0  0  0  0  0
   20.3055   24.4560   40.6052 C   0  0  0  0  0  0  0  0  0  0  0  0
   19.0997   24.0943   40.6773 O   0  0  0  0  0  0  0  0  0  0  0  0
   21.1277   24.4462   41.7838 N   0  0  0  0  0  0  0  0  0  0  0  0
   22.5796   24.4905   41.7510 C   0  0  0  0  0  0  0  0  0  0  0  0
   23.0268   24.4097   43.2046 C   0  0  0  0  0  0  0  0  0  0  0  0
   21.8138   23.9233   43.9942 C   0  0  0  0  0  0  0  0  0  0  0  0
   20.6006   24.1912   43.1128 C   0  0  0  0  0  0  0  0  0  0  0  0
  1  2  1  0
  2  3  2  0
  2  4  1  0
  4  5  2  0
  5  6  1  0
  6  7  2  0
  7  8  1  0
  8  9  2  0
  9 10  1  0
 10 11  2  0
 11 12  1  0
 12 13  2  0
 13 14  1  0
  1 15  1  0
 15 16  2  0
 16 17  1  0
 17 18  2  0
 18 19  1  0
 19 20  1  0
 20 21  1  0
 21 22  1  0
 22 23  1  0
 20 24  1  0
 24 25  2  0
 24 26  1  0
 26 27  1  0
 27 28  1  0
 28 29  1  0
 29 30  1  0
 13  4  1  0
 23 15  1  0
 30 26  1  0
 12  7  1  0
 23 18  1  0
M  END
>  <AAScore>  (1) 
624.4017994129429

>  <RootName>  (1) 
./4ZLY/04_DeltaGEst/trajectory_04/rank_00/lead_0218

$$$$
