confid_8
     RDKit          3D

 27 30  0  0  0  0  0  0  0  0999 V2000
   24.5500   26.3900   36.2500 N   0  0  0  0  0  0  0  0  0  0  0  0
   25.6000   26.1300   35.4000 C   0  0  0  0  0  0  0  0  0  0  0  0
   25.4300   25.4300   34.4200 O   0  0  0  0  0  0  0  0  0  0  0  0
   26.9800   26.6300   35.7100 C   0  0  0  0  0  0  0  0  0  0  0  0
   27.3200   26.8200   36.9800 N   0  0  0  0  0  0  0  0  0  0  0  0
   28.4700   27.4000   37.3100 N   0  0  0  0  0  0  0  0  0  0  0  0
   29.4000   27.6300   36.3700 C   0  0  0  0  0  0  0  0  0  0  0  0
   30.6600   28.0500   36.8000 C   0  0  0  0  0  0  0  0  0  0  0  0
   31.5700   28.3600   35.7800 C   0  0  0  0  0  0  0  0  0  0  0  0
   31.3700   28.1000   34.4300 C   0  0  0  0  0  0  0  0  0  0  0  0
   30.1200   27.5900   34.0500 C   0  0  0  0  0  0  0  0  0  0  0  0
   29.1500   27.3400   35.0300 C   0  0  0  0  0  0  0  0  0  0  0  0
   27.8800   26.8900   34.6600 C   0  0  0  0  0  0  0  0  0  0  0  0
   27.4800   26.6100   33.3700 N   0  0  0  0  0  0  0  0  0  0  0  0
   23.1655   26.2915   35.8747 C   0  0  0  0  0  0  0  0  0  0  0  0
   22.2474   25.9715   36.8225 N   0  0  0  0  0  0  0  0  0  0  0  0
   20.9225   25.8849   36.5449 C   0  0  0  0  0  0  0  0  0  0  0  0
   20.4432   26.1361   35.2481 C   0  0  0  0  0  0  0  0  0  0  0  0
   18.9542   26.0605   35.0023 C   0  0  0  0  0  0  0  0  0  0  0  0
   18.4151   27.4146   34.5234 C   0  0  0  0  0  0  0  0  0  0  0  0
   18.6202   27.6669   33.0180 C   0  0  0  0  0  0  0  0  0  0  0  0
   19.5917   26.7461   32.4088 N   0  0  0  0  0  0  0  0  0  0  0  0
   20.9669   26.7570   32.8231 C   0  0  0  0  0  0  0  0  0  0  0  0
   21.8585   26.9347   31.9457 O   0  0  0  0  0  0  0  0  0  0  0  0
   21.3704   26.4979   34.2359 C   0  0  0  0  0  0  0  0  0  0  0  0
   22.7346   26.5910   34.5748 C   0  0  0  0  0  0  0  0  0  0  0  0
   19.2184   25.9183   31.2574 C   0  0  0  0  0  0  0  0  0  0  0  0
  1  2  1  0
  2  3  2  0
  2  4  1  0
  4  5  2  0
  5  6  1  0
  6  7  2  0
  7  8  1  0
  8  9  2  0
  9 10  1  0
 10 11  2  0
 11 12  1  0
 12 13  2  0
 13 14  1  0
  1 15  1  0
 15 16  2  0
 16 17  1  0
 17 18  2  0
 18 19  1  0
 19 20  1  0
 20 21  1  0
 21 22  1  0
 22 23  1  0
 23 24  2  0
 23 25  1  0
 25 26  2  0
 22 27  1  0
 13  4  1  0
 26 15  1  0
 12  7  1  0
 25 18  1  0
M  END
>  <AAScore>  (1) 
299.26402787231814

>  <RootName>  (1) 
./4ZLY/04_DeltaGEst/trajectory_01/rank_00/lead_0059

$$$$
