confid_6
     RDKit          3D

 30 33  0  0  0  0  0  0  0  0999 V2000
   25.3300   26.2600   34.7600 N   0  0  0  0  0  0  0  0  0  0  0  0
   26.1200   25.9200   33.6900 C   0  0  0  0  0  0  0  0  0  0  0  0
   25.6300   25.1100   32.9400 O   0  0  0  0  0  0  0  0  0  0  0  0
   27.5200   26.3800   33.4600 C   0  0  0  0  0  0  0  0  0  0  0  0
   28.1600   26.6300   34.6100 N   0  0  0  0  0  0  0  0  0  0  0  0
   29.4800   26.8500   34.5700 N   0  0  0  0  0  0  0  0  0  0  0  0
   30.1900   26.7800   33.4400 C   0  0  0  0  0  0  0  0  0  0  0  0
   31.5600   27.0500   33.5000 C   0  0  0  0  0  0  0  0  0  0  0  0
   32.2700   27.2400   32.3100 C   0  0  0  0  0  0  0  0  0  0  0  0
   31.6100   27.2500   31.0800 C   0  0  0  0  0  0  0  0  0  0  0  0
   30.2700   26.8700   31.0600 C   0  0  0  0  0  0  0  0  0  0  0  0
   29.5100   26.6900   32.2300 C   0  0  0  0  0  0  0  0  0  0  0  0
   28.1400   26.4100   32.2000 C   0  0  0  0  0  0  0  0  0  0  0  0
   27.4300   26.1300   31.0500 N   0  0  0  0  0  0  0  0  0  0  0  0
   27.5627   24.8105   30.4199 C   0  0  0  0  0  0  0  0  0  0  0  0
   26.8812   24.7940   29.0542 C   0  0  0  0  0  0  0  0  0  0  0  0
   27.2384   26.0253   28.3379 N   0  0  0  0  0  0  0  0  0  0  0  0
   26.6447   27.2299   28.9609 C   0  0  0  0  0  0  0  0  0  0  0  0
   26.5093   27.1289   30.4966 C   0  0  0  0  0  0  0  0  0  0  0  0
   26.7553   25.9160   26.6632 S   0  0  0  0  0  6  0  0  0  0  0  0
   27.1189   27.1996   25.9659 O   0  0  0  0  0  0  0  0  0  0  0  0
   25.2643   25.7413   26.5640 O   0  0  0  0  0  0  0  0  0  0  0  0
   27.6231   24.5860   25.8652 C   0  0  0  0  0  0  0  0  0  0  0  0
   28.9572   24.8233   25.4943 C   0  0  0  0  0  0  0  0  0  0  0  0
   29.7155   23.8275   24.8749 C   0  0  0  0  0  0  0  0  0  0  0  0
   29.1523   22.5776   24.6182 C   0  0  0  0  0  0  0  0  0  0  0  0
   29.8909   21.6110   24.0121 F   0  0  0  0  0  0  0  0  0  0  0  0
   27.8302   22.3177   24.9861 C   0  0  0  0  0  0  0  0  0  0  0  0
   27.0511   23.3050   25.6215 C   0  0  0  0  0  0  0  0  0  0  0  0
   25.6293   22.9639   25.9944 C   0  0  0  0  0  0  0  0  0  0  0  0
  1  2  1  0
  2  3  2  0
  2  4  1  0
  4  5  2  0
  5  6  1  0
  6  7  2  0
  7  8  1  0
  8  9  2  0
  9 10  1  0
 10 11  2  0
 11 12  1  0
 12 13  2  0
 13 14  1  0
 14 15  1  0
 15 16  1  0
 16 17  1  0
 17 18  1  0
 18 19  1  0
 17 20  1  0
 20 21  2  0
 20 22  2  0
 20 23  1  0
 23 24  2  0
 24 25  1  0
 25 26  2  0
 26 27  1  0
 26 28  1  0
 28 29  2  0
 29 30  1  0
 13  4  1  0
 19 14  1  0
 29 23  1  0
 12  7  1  0
M  END
>  <AAScore>  (1) 
62.61271552643258

>  <RootName>  (1) 
./4ZLY/04_DeltaGEst/trajectory_03/rank_01/lead_0058

$$$$
