confid_5
     RDKit          3D

 29 32  0  0  0  0  0  0  0  0999 V2000
   24.4800   26.1000   36.1300 N   0  0  0  0  0  0  0  0  0  0  0  0
   25.2500   26.2500   34.9900 C   0  0  0  0  0  0  0  0  0  0  0  0
   24.7400   25.7600   33.9900 O   0  0  0  0  0  0  0  0  0  0  0  0
   26.5900   26.8900   34.9600 C   0  0  0  0  0  0  0  0  0  0  0  0
   27.0600   27.2400   36.1600 N   0  0  0  0  0  0  0  0  0  0  0  0
   28.3000   27.7100   36.2400 N   0  0  0  0  0  0  0  0  0  0  0  0
   29.0500   27.9600   35.1500 C   0  0  0  0  0  0  0  0  0  0  0  0
   30.3400   28.4900   35.2600 C   0  0  0  0  0  0  0  0  0  0  0  0
   31.1100   28.8200   34.1400 C   0  0  0  0  0  0  0  0  0  0  0  0
   30.5200   28.6700   32.8800 C   0  0  0  0  0  0  0  0  0  0  0  0
   29.2900   28.0200   32.7700 C   0  0  0  0  0  0  0  0  0  0  0  0
   28.5200   27.7100   33.8900 C   0  0  0  0  0  0  0  0  0  0  0  0
   27.2700   27.0800   33.7600 C   0  0  0  0  0  0  0  0  0  0  0  0
   26.7500   26.8800   32.4900 N   0  0  0  0  0  0  0  0  0  0  0  0
   23.1223   25.5450   36.1357 C   0  0  0  0  0  0  0  0  0  0  0  0
   22.2157   26.3967   35.3388 N   0  0  0  0  0  0  0  0  0  0  0  0
   21.9584   27.6655   36.0328 C   0  0  0  0  0  0  0  0  0  0  0  0
   21.1897   28.6227   35.1225 C   0  0  0  0  0  0  0  0  0  0  0  0
   20.1364   27.9782   34.3065 N   0  0  0  0  0  0  0  0  0  0  0  0
   20.0397   26.5059   34.1804 C   0  0  0  0  0  0  0  0  0  0  0  0
   20.9272   25.7201   35.1497 C   0  0  0  0  0  0  0  0  0  0  0  0
   19.2759   28.8177   33.4723 C   0  0  0  0  0  0  0  0  0  0  0  0
   19.4086   30.2273   33.4629 C   0  0  0  0  0  0  0  0  0  0  0  0
   18.5850   31.0273   32.6659 C   0  0  0  0  0  0  0  0  0  0  0  0
   17.6040   30.4458   31.8479 C   0  0  0  0  0  0  0  0  0  0  0  0
   17.4655   29.0578   31.8392 C   0  0  0  0  0  0  0  0  0  0  0  0
   18.2857   28.2523   32.6333 C   0  0  0  0  0  0  0  0  0  0  0  0
   16.7540   31.2072   31.0318 O   0  0  0  0  0  0  0  0  0  0  0  0
   16.7848   32.6280   30.9429 C   0  0  0  0  0  0  0  0  0  0  0  0
  1  2  1  0
  2  3  2  0
  2  4  1  0
  4  5  2  0
  5  6  1  0
  6  7  2  0
  7  8  1  0
  8  9  2  0
  9 10  1  0
 10 11  2  0
 11 12  1  0
 12 13  2  0
 13 14  1  0
  1 15  1  0
 15 16  1  0
 16 17  1  0
 17 18  1  0
 18 19  1  0
 19 20  1  0
 20 21  1  0
 19 22  1  0
 22 23  2  0
 23 24  1  0
 24 25  2  0
 25 26  1  0
 26 27  2  0
 25 28  1  0
 28 29  1  0
 13  4  1  0
 21 16  1  0
 27 22  1  0
 12  7  1  0
M  END
>  <AAScore>  (1) 
562.6478593786728

>  <RootName>  (1) 
./4ZLY/04_DeltaGEst/trajectory_00/rank_01/lead_0348

$$$$
