confid_2
     RDKit          3D

 29 32  0  0  0  0  0  0  0  0999 V2000
   25.3300   26.2600   34.7600 N   0  0  0  0  0  0  0  0  0  0  0  0
   26.1200   25.9200   33.6900 C   0  0  0  0  0  0  0  0  0  0  0  0
   25.6300   25.1100   32.9400 O   0  0  0  0  0  0  0  0  0  0  0  0
   27.5200   26.3800   33.4600 C   0  0  0  0  0  0  0  0  0  0  0  0
   28.1600   26.6300   34.6100 N   0  0  0  0  0  0  0  0  0  0  0  0
   29.4800   26.8500   34.5700 N   0  0  0  0  0  0  0  0  0  0  0  0
   30.1900   26.7800   33.4400 C   0  0  0  0  0  0  0  0  0  0  0  0
   31.5600   27.0500   33.5000 C   0  0  0  0  0  0  0  0  0  0  0  0
   32.2700   27.2400   32.3100 C   0  0  0  0  0  0  0  0  0  0  0  0
   31.6100   27.2500   31.0800 C   0  0  0  0  0  0  0  0  0  0  0  0
   30.2700   26.8700   31.0600 C   0  0  0  0  0  0  0  0  0  0  0  0
   29.5100   26.6900   32.2300 C   0  0  0  0  0  0  0  0  0  0  0  0
   28.1400   26.4100   32.2000 C   0  0  0  0  0  0  0  0  0  0  0  0
   27.4300   26.1300   31.0500 N   0  0  0  0  0  0  0  0  0  0  0  0
   24.1816   25.5098   35.2082 C   0  0  0  0  0  0  0  0  0  0  0  0
   24.1679   24.1646   35.0427 N   0  0  0  0  0  0  0  0  0  0  0  0
   23.1556   23.3869   35.4841 C   0  0  0  0  0  0  0  0  0  0  0  0
   22.0743   23.9378   36.1840 C   0  0  0  0  0  0  0  0  0  0  0  0
   21.0423   22.9469   36.6880 C   0  0  0  0  0  0  0  0  0  0  0  0
   19.6847   23.5430   36.8544 C   0  0  0  0  0  0  0  0  0  0  0  0
   18.8384   23.3962   35.9852 O   0  0  0  0  0  0  0  0  0  0  0  0
   19.3682   24.3345   38.0872 C   0  0  0  0  0  0  0  0  0  0  0  0
   20.4515   25.2756   38.4335 N   0  0  0  0  0  0  0  0  0  0  0  0
   21.4676   24.7700   39.3844 C   0  0  0  0  0  0  0  0  0  0  0  0
   21.9528   25.8955   40.2924 C   0  0  0  0  0  0  0  0  0  0  0  0
   20.9775   26.0374   37.2793 C   0  0  0  0  0  0  0  0  0  0  0  0
   22.0788   25.3428   36.4605 C   0  0  0  0  0  0  0  0  0  0  0  0
   23.1033   26.1435   35.8682 C   0  0  0  0  0  0  0  0  0  0  0  0
   23.0532   27.6570   35.9225 C   0  0  0  0  0  0  0  0  0  0  0  0
  1  2  1  0
  2  3  2  0
  2  4  1  0
  4  5  2  0
  5  6  1  0
  6  7  2  0
  7  8  1  0
  8  9  2  0
  9 10  1  0
 10 11  2  0
 11 12  1  0
 12 13  2  0
 13 14  1  0
  1 15  1  0
 15 16  2  0
 16 17  1  0
 17 18  2  0
 18 19  1  0
 19 20  1  0
 20 21  2  0
 20 22  1  0
 22 23  1  0
 23 24  1  0
 24 25  1  0
 23 26  1  0
 26 27  1  0
 27 28  2  0
 28 29  1  0
 13  4  1  0
 28 15  1  0
 12  7  1  0
 27 18  1  0
M  END
>  <AAScore>  (1) 
4115.705109705777

>  <RootName>  (1) 
./4ZLY/04_DeltaGEst/trajectory_03/rank_00/lead_0131

$$$$
