confid_18
     RDKit          3D

 27 30  0  0  0  0  0  0  0  0999 V2000
   24.6900   26.1200   35.5300 N   0  0  0  0  0  0  0  0  0  0  0  0
   25.6600   25.6700   34.6600 C   0  0  0  0  0  0  0  0  0  0  0  0
   25.2400   25.0100   33.7200 O   0  0  0  0  0  0  0  0  0  0  0  0
   27.0300   26.2200   34.8800 C   0  0  0  0  0  0  0  0  0  0  0  0
   27.3500   26.7300   36.0700 N   0  0  0  0  0  0  0  0  0  0  0  0
   28.5700   27.1800   36.3300 N   0  0  0  0  0  0  0  0  0  0  0  0
   29.5300   27.1100   35.3900 C   0  0  0  0  0  0  0  0  0  0  0  0
   30.8300   27.5700   35.6500 C   0  0  0  0  0  0  0  0  0  0  0  0
   31.8500   27.5400   34.6900 C   0  0  0  0  0  0  0  0  0  0  0  0
   31.5100   27.1200   33.4000 C   0  0  0  0  0  0  0  0  0  0  0  0
   30.2200   26.6300   33.1100 C   0  0  0  0  0  0  0  0  0  0  0  0
   29.2400   26.6600   34.1000 C   0  0  0  0  0  0  0  0  0  0  0  0
   27.9300   26.2600   33.8100 C   0  0  0  0  0  0  0  0  0  0  0  0
   27.5200   25.7100   32.6100 N   0  0  0  0  0  0  0  0  0  0  0  0
   31.1832   28.0728   37.0015 C   0  0  0  0  0  0  0  0  0  0  0  0
   31.7623   29.3430   37.1541 C   0  0  0  0  0  0  0  0  0  0  0  0
   32.1128   29.8097   38.4281 C   0  0  0  0  0  0  0  0  0  0  0  0
   32.7525   31.1530   38.6255 C   0  0  0  0  0  0  0  0  0  0  0  0
   33.6413   31.1105   39.7259 O   0  0  0  0  0  0  0  0  0  0  0  0
   32.9230   30.8589   40.9217 C   0  0  0  0  0  0  0  0  0  0  0  0
   32.1993   29.5778   40.8595 N   0  0  0  0  0  0  0  0  0  0  0  0
   31.6494   29.0614   42.0846 C   0  0  0  0  0  0  0  0  0  0  0  0
   32.4021   28.8843   43.0794 O   0  0  0  0  0  0  0  0  0  0  0  0
   30.1836   28.7879   42.2255 C   0  0  0  0  0  0  0  0  0  0  0  0
   31.8484   29.0375   39.5661 C   0  0  0  0  0  0  0  0  0  0  0  0
   31.3127   27.7467   39.4091 C   0  0  0  0  0  0  0  0  0  0  0  0
   30.9789   27.2719   38.1376 C   0  0  0  0  0  0  0  0  0  0  0  0
  1  2  1  0
  2  3  2  0
  2  4  1  0
  4  5  2  0
  5  6  1  0
  6  7  2  0
  7  8  1  0
  8  9  2  0
  9 10  1  0
 10 11  2  0
 11 12  1  0
 12 13  2  0
 13 14  1  0
  8 15  1  0
 15 16  2  0
 16 17  1  0
 17 18  1  0
 18 19  1  0
 19 20  1  0
 20 21  1  0
 21 22  1  0
 22 23  2  0
 22 24  1  0
 21 25  1  0
 25 26  1  0
 26 27  2  0
 13  4  1  0
 27 15  1  0
 12  7  1  0
 25 17  2  0
M  END
>  <AAScore>  (1) 
7.404787404640307

>  <RootName>  (1) 
./4ZLY/04_DeltaGEst/trajectory_02/rank_01/lead_0395

$$$$
