confid_14
     RDKit          3D

 27 30  0  0  0  0  0  0  0  0999 V2000
   25.3300   26.2600   34.7600 N   0  0  0  0  0  0  0  0  0  0  0  0
   26.1200   25.9200   33.6900 C   0  0  0  0  0  0  0  0  0  0  0  0
   25.6300   25.1100   32.9400 O   0  0  0  0  0  0  0  0  0  0  0  0
   27.5200   26.3800   33.4600 C   0  0  0  0  0  0  0  0  0  0  0  0
   28.1600   26.6300   34.6100 N   0  0  0  0  0  0  0  0  0  0  0  0
   29.4800   26.8500   34.5700 N   0  0  0  0  0  0  0  0  0  0  0  0
   30.1900   26.7800   33.4400 C   0  0  0  0  0  0  0  0  0  0  0  0
   31.5600   27.0500   33.5000 C   0  0  0  0  0  0  0  0  0  0  0  0
   32.2700   27.2400   32.3100 C   0  0  0  0  0  0  0  0  0  0  0  0
   31.6100   27.2500   31.0800 C   0  0  0  0  0  0  0  0  0  0  0  0
   30.2700   26.8700   31.0600 C   0  0  0  0  0  0  0  0  0  0  0  0
   29.5100   26.6900   32.2300 C   0  0  0  0  0  0  0  0  0  0  0  0
   28.1400   26.4100   32.2000 C   0  0  0  0  0  0  0  0  0  0  0  0
   27.4300   26.1300   31.0500 N   0  0  0  0  0  0  0  0  0  0  0  0
   24.2286   25.4905   35.2750 C   0  0  0  0  0  0  0  0  0  0  0  0
   23.4025   26.0466   36.1999 N   0  0  0  0  0  0  0  0  0  0  0  0
   22.3763   25.3432   36.7426 C   0  0  0  0  0  0  0  0  0  0  0  0
   22.1585   24.0146   36.3625 C   0  0  0  0  0  0  0  0  0  0  0  0
   21.1020   23.1723   37.0420 C   0  0  0  0  0  0  0  0  0  0  0  0
   19.9695   22.8340   36.1485 N   0  0  0  0  0  0  0  0  0  0  0  0
   19.1373   21.7885   36.7657 C   0  0  0  0  0  0  0  0  0  0  0  0
   20.3407   22.4636   34.7596 C   0  0  0  0  0  0  0  0  0  0  0  0
   21.5738   21.5944   34.6643 C   0  0  0  0  0  0  0  0  0  0  0  0
   22.8094   22.0710   34.9025 C   0  0  0  0  0  0  0  0  0  0  0  0
   24.0096   21.2310   34.5729 C   0  0  0  0  0  0  0  0  0  0  0  0
   23.0092   23.4570   35.3889 C   0  0  0  0  0  0  0  0  0  0  0  0
   24.0272   24.2027   34.8836 N   0  0  0  0  0  0  0  0  0  0  0  0
  1  2  1  0
  2  3  2  0
  2  4  1  0
  4  5  2  0
  5  6  1  0
  6  7  2  0
  7  8  1  0
  8  9  2  0
  9 10  1  0
 10 11  2  0
 11 12  1  0
 12 13  2  0
 13 14  1  0
  1 15  1  0
 15 16  2  0
 16 17  1  0
 17 18  2  0
 18 19  1  0
 19 20  1  0
 20 21  1  0
 20 22  1  0
 22 23  1  0
 23 24  2  0
 24 25  1  0
 24 26  1  0
 26 27  2  0
 13  4  1  0
 27 15  1  0
 12  7  1  0
 26 18  1  0
M  END
>  <AAScore>  (1) 
1290.007626603355

>  <RootName>  (1) 
./4ZLY/04_DeltaGEst/trajectory_03/rank_00/lead_0458

$$$$
