confid_12
     RDKit          3D

 27 30  0  0  0  0  0  0  0  0999 V2000
   24.6900   26.1200   35.5300 N   0  0  0  0  0  0  0  0  0  0  0  0
   25.6600   25.6700   34.6600 C   0  0  0  0  0  0  0  0  0  0  0  0
   25.2400   25.0100   33.7200 O   0  0  0  0  0  0  0  0  0  0  0  0
   27.0300   26.2200   34.8800 C   0  0  0  0  0  0  0  0  0  0  0  0
   27.3500   26.7300   36.0700 N   0  0  0  0  0  0  0  0  0  0  0  0
   28.5700   27.1800   36.3300 N   0  0  0  0  0  0  0  0  0  0  0  0
   29.5300   27.1100   35.3900 C   0  0  0  0  0  0  0  0  0  0  0  0
   30.8300   27.5700   35.6500 C   0  0  0  0  0  0  0  0  0  0  0  0
   31.8500   27.5400   34.6900 C   0  0  0  0  0  0  0  0  0  0  0  0
   31.5100   27.1200   33.4000 C   0  0  0  0  0  0  0  0  0  0  0  0
   30.2200   26.6300   33.1100 C   0  0  0  0  0  0  0  0  0  0  0  0
   29.2400   26.6600   34.1000 C   0  0  0  0  0  0  0  0  0  0  0  0
   27.9300   26.2600   33.8100 C   0  0  0  0  0  0  0  0  0  0  0  0
   27.5200   25.7100   32.6100 N   0  0  0  0  0  0  0  0  0  0  0  0
   31.1915   28.0745   36.9980 C   0  0  0  0  0  0  0  0  0  0  0  0
   30.8095   27.5017   38.2217 C   0  0  0  0  0  0  0  0  0  0  0  0
   31.3585   28.2017   39.2930 C   0  0  0  0  0  0  0  0  0  0  0  0
   31.3731   28.0021   40.7584 C   0  0  2  0  0  0  0  0  0  0  0  0
   32.1824   29.1381   41.2888 N   0  0  0  0  0  0  0  0  0  0  0  0
   31.1947   30.2058   42.2607 S   0  0  0  0  0  6  0  0  0  0  0  0
   30.6323   29.4384   43.4243 O   0  0  0  0  0  0  0  0  0  0  0  0
   32.0465   31.3266   42.7874 O   0  0  0  0  0  0  0  0  0  0  0  0
   29.8464   30.8971   41.3161 C   0  0  0  0  0  0  0  0  0  0  0  0
   32.7564   29.8648   40.1236 C   0  0  0  0  0  0  0  0  0  0  0  0
   32.1172   29.2450   38.9568 C   0  0  0  0  0  0  0  0  0  0  0  0
   32.2248   29.4021   37.2935 S   0  0  0  0  0  0  0  0  0  0  0  0
   32.0481   26.6806   41.1206 C   0  0  0  0  0  0  0  0  0  0  0  0
  1  2  1  0
  2  3  2  0
  2  4  1  0
  4  5  2  0
  5  6  1  0
  6  7  2  0
  7  8  1  0
  8  9  2  0
  9 10  1  0
 10 11  2  0
 11 12  1  0
 12 13  2  0
 13 14  1  0
  8 15  1  0
 15 16  2  0
 16 17  1  0
 17 18  1  0
 18 19  1  0
 19 20  1  0
 20 21  2  0
 20 22  2  0
 20 23  1  0
 19 24  1  0
 24 25  1  0
 25 26  1  0
 18 27  1  6
 13  4  1  0
 26 15  1  0
 12  7  1  0
 25 17  2  0
M  END
>  <AAScore>  (1) 
29.442046142567197

>  <RootName>  (1) 
./4ZLY/04_DeltaGEst/trajectory_02/rank_01/lead_0020

$$$$
