confid_17
     RDKit          3D

 29 32  0  0  0  0  0  0  0  0999 V2000
   24.4800   26.1000   36.1300 N   0  0  0  0  0  0  0  0  0  0  0  0
   25.2500   26.2500   34.9900 C   0  0  0  0  0  0  0  0  0  0  0  0
   24.7400   25.7600   33.9900 O   0  0  0  0  0  0  0  0  0  0  0  0
   26.5900   26.8900   34.9600 C   0  0  0  0  0  0  0  0  0  0  0  0
   27.0600   27.2400   36.1600 N   0  0  0  0  0  0  0  0  0  0  0  0
   28.3000   27.7100   36.2400 N   0  0  0  0  0  0  0  0  0  0  0  0
   29.0500   27.9600   35.1500 C   0  0  0  0  0  0  0  0  0  0  0  0
   30.3400   28.4900   35.2600 C   0  0  0  0  0  0  0  0  0  0  0  0
   31.1100   28.8200   34.1400 C   0  0  0  0  0  0  0  0  0  0  0  0
   30.5200   28.6700   32.8800 C   0  0  0  0  0  0  0  0  0  0  0  0
   29.2900   28.0200   32.7700 C   0  0  0  0  0  0  0  0  0  0  0  0
   28.5200   27.7100   33.8900 C   0  0  0  0  0  0  0  0  0  0  0  0
   27.2700   27.0800   33.7600 C   0  0  0  0  0  0  0  0  0  0  0  0
   26.7500   26.8800   32.4900 N   0  0  0  0  0  0  0  0  0  0  0  0
   23.1888   25.4711   36.1680 C   0  0  0  0  0  0  0  0  0  0  0  0
   22.1757   26.1778   36.5783 N   0  0  0  0  0  0  0  0  0  0  0  0
   20.8282   25.7257   36.7590 C   0  0  0  0  0  0  0  0  0  0  0  0
   20.4864   24.7973   37.6655 C   0  0  0  0  0  0  0  0  0  0  0  0
   19.0505   24.5708   38.0530 C   0  0  0  0  0  0  0  0  0  0  0  0
   19.1337   23.8575   39.3160 N   0  0  0  0  0  0  0  0  0  0  0  0
   20.4941   23.6079   39.6383 C   0  0  0  0  0  0  0  0  0  0  0  0
   20.8560   23.0712   40.7201 O   0  0  0  0  0  0  0  0  0  0  0  0
   21.4402   24.0591   38.5788 C   0  0  1  0  0  0  0  0  0  0  0  0
   22.0709   22.8253   37.8962 C   0  0  0  0  0  0  0  0  0  0  0  0
   23.3344   23.1393   37.0840 C   0  0  0  0  0  0  0  0  0  0  0  0
   23.0630   24.0005   35.8422 C   0  0  0  0  0  0  0  0  0  0  0  0
   17.9882   23.4610   40.1298 C   0  0  0  0  0  0  0  0  0  0  0  0
   17.9888   24.2100   41.3274 O   0  0  0  0  0  0  0  0  0  0  0  0
   16.9637   23.7384   42.1757 C   0  0  0  0  0  0  0  0  0  0  0  0
  1  2  1  0
  2  3  2  0
  2  4  1  0
  4  5  2  0
  5  6  1  0
  6  7  2  0
  7  8  1  0
  8  9  2  0
  9 10  1  0
 10 11  2  0
 11 12  1  0
 12 13  2  0
 13 14  1  0
  1 15  1  0
 15 16  2  0
 16 17  1  0
 17 18  2  0
 18 19  1  0
 19 20  1  0
 20 21  1  0
 21 22  2  0
 21 23  1  0
 23 24  1  6
 24 25  1  0
 25 26  1  0
 20 27  1  0
 27 28  1  0
 28 29  1  0
 13  4  1  0
 26 15  1  0
 12  7  1  0
 23 18  1  0
M  END
>  <AAScore>  (1) 
1939.4804503703324

>  <RootName>  (1) 
./4ZLY/04_DeltaGEst/trajectory_00/rank_01/lead_0393

$$$$
