confid_11
     RDKit          3D

 29 33  0  0  0  0  0  0  0  0999 V2000
   25.3300   26.2600   34.7600 N   0  0  0  0  0  0  0  0  0  0  0  0
   26.1200   25.9200   33.6900 C   0  0  0  0  0  0  0  0  0  0  0  0
   25.6300   25.1100   32.9400 O   0  0  0  0  0  0  0  0  0  0  0  0
   27.5200   26.3800   33.4600 C   0  0  0  0  0  0  0  0  0  0  0  0
   28.1600   26.6300   34.6100 N   0  0  0  0  0  0  0  0  0  0  0  0
   29.4800   26.8500   34.5700 N   0  0  0  0  0  0  0  0  0  0  0  0
   30.1900   26.7800   33.4400 C   0  0  0  0  0  0  0  0  0  0  0  0
   31.5600   27.0500   33.5000 C   0  0  0  0  0  0  0  0  0  0  0  0
   32.2700   27.2400   32.3100 C   0  0  0  0  0  0  0  0  0  0  0  0
   31.6100   27.2500   31.0800 C   0  0  0  0  0  0  0  0  0  0  0  0
   30.2700   26.8700   31.0600 C   0  0  0  0  0  0  0  0  0  0  0  0
   29.5100   26.6900   32.2300 C   0  0  0  0  0  0  0  0  0  0  0  0
   28.1400   26.4100   32.2000 C   0  0  0  0  0  0  0  0  0  0  0  0
   27.4300   26.1300   31.0500 N   0  0  0  0  0  0  0  0  0  0  0  0
   26.4954   27.1349   30.5283 C   0  0  0  0  0  0  0  0  0  0  0  0
   26.2599   26.9591   29.0288 C   0  0  0  0  0  0  0  0  0  0  0  0
   27.5416   26.8727   28.3252 N   0  0  0  0  0  0  0  0  0  0  0  0
   28.1173   28.0994   27.7607 C   0  0  0  0  0  0  0  0  0  0  0  0
   28.2525   25.6142   28.2107 C   0  0  0  0  0  0  0  0  0  0  0  0
   29.0247   25.3667   27.0506 C   0  0  0  0  0  0  0  0  0  0  0  0
   29.7441   24.1806   26.9445 C   0  0  0  0  0  0  0  0  0  0  0  0
   30.5922   23.7291   25.8220 C   0  0  0  0  0  0  0  0  0  0  0  0
   31.1704   22.4335   26.2548 N   0  0  0  0  0  0  0  0  0  0  0  0
   30.5468   22.0814   27.5538 C   0  0  0  0  0  0  0  0  0  0  0  0
   29.7191   23.2473   27.9259 C   0  0  0  0  0  0  0  0  0  0  0  0
   28.9727   23.4323   29.0847 C   0  0  0  0  0  0  0  0  0  0  0  0
   28.2381   24.6270   29.2547 C   0  0  0  0  0  0  0  0  0  0  0  0
   27.4198   24.7591   30.5222 C   0  0  0  0  0  0  0  0  0  0  0  0
   30.9570   21.3823   25.2491 C   0  0  0  0  0  0  0  0  0  0  0  0
  1  2  1  0
  2  3  2  0
  2  4  1  0
  4  5  2  0
  5  6  1  0
  6  7  2  0
  7  8  1  0
  8  9  2  0
  9 10  1  0
 10 11  2  0
 11 12  1  0
 12 13  2  0
 13 14  1  0
 14 15  1  0
 15 16  1  0
 16 17  1  0
 17 18  1  0
 17 19  1  0
 19 20  2  0
 20 21  1  0
 21 22  1  0
 22 23  1  0
 23 24  1  0
 24 25  1  0
 25 26  1  0
 26 27  2  0
 27 28  1  0
 23 29  1  0
 13  4  1  0
 28 14  1  0
 12  7  1  0
 27 19  1  0
 25 21  2  0
M  END
>  <AAScore>  (1) 
-1.4842852176753394

>  <RootName>  (1) 
./4ZLY/04_DeltaGEst/trajectory_03/rank_01/lead_0450

$$$$
