confid_3
     RDKit          3D

 28 32  0  0  0  0  0  0  0  0999 V2000
   24.2000   26.2400   35.6900 N   0  0  0  0  0  0  0  0  0  0  0  0
   24.8500   26.2800   34.4800 C   0  0  0  0  0  0  0  0  0  0  0  0
   24.3100   25.7400   33.5400 O   0  0  0  0  0  0  0  0  0  0  0  0
   26.1800   26.9700   34.4700 C   0  0  0  0  0  0  0  0  0  0  0  0
   26.6500   27.6000   35.5500 N   0  0  0  0  0  0  0  0  0  0  0  0
   27.7900   28.2700   35.6200 N   0  0  0  0  0  0  0  0  0  0  0  0
   28.5400   28.3000   34.5100 C   0  0  0  0  0  0  0  0  0  0  0  0
   29.7700   28.9400   34.5600 C   0  0  0  0  0  0  0  0  0  0  0  0
   30.7000   28.8900   33.5000 C   0  0  0  0  0  0  0  0  0  0  0  0
   30.3700   28.1400   32.3700 C   0  0  0  0  0  0  0  0  0  0  0  0
   29.1200   27.5200   32.2800 C   0  0  0  0  0  0  0  0  0  0  0  0
   28.2100   27.6100   33.3300 C   0  0  0  0  0  0  0  0  0  0  0  0
   26.9700   26.9700   33.3100 C   0  0  0  0  0  0  0  0  0  0  0  0
   26.5300   26.2400   32.2200 N   0  0  0  0  0  0  0  0  0  0  0  0
   30.1370   29.6724   35.7404 N   0  0  0  0  0  0  0  0  0  0  0  0
   31.0362   29.0576   36.7232 C   0  0  0  0  0  0  0  0  0  0  0  0
   32.4996   29.4438   36.4620 C   0  0  0  0  0  0  0  0  0  0  0  0
   32.7200   30.8666   36.0075 C   0  0  0  0  0  0  0  0  0  0  0  0
   34.1455   31.3739   35.2647 S   0  0  0  0  0  0  0  0  0  0  0  0
   33.6780   32.9731   35.0801 C   0  0  0  0  0  0  0  0  0  0  0  0
   34.4741   33.9922   34.4822 N   0  0  0  0  0  0  0  0  0  0  0  0
   34.3590   35.4304   34.1855 C   0  0  0  0  0  0  0  0  0  0  0  0
   35.7054   35.5690   33.5546 C   0  0  0  0  0  0  0  0  0  0  0  0
   35.8052   34.1112   33.8631 C   0  0  0  0  0  0  0  0  0  0  0  0
   32.4068   33.1545   35.5960 C   0  0  0  0  0  0  0  0  0  0  0  0
   31.8613   31.9737   36.1254 C   0  0  0  0  0  0  0  0  0  0  0  0
   30.4923   31.9314   36.7468 C   0  0  0  0  0  0  0  0  0  0  0  0
   29.5476   30.9982   35.9746 C   0  0  0  0  0  0  0  0  0  0  0  0
  1  2  1  0
  2  3  2  0
  2  4  1  0
  4  5  2  0
  5  6  1  0
  6  7  2  0
  7  8  1  0
  8  9  2  0
  9 10  1  0
 10 11  2  0
 11 12  1  0
 12 13  2  0
 13 14  1  0
  8 15  1  0
 15 16  1  0
 16 17  1  0
 17 18  1  0
 18 19  1  0
 19 20  1  0
 20 21  1  0
 21 22  1  0
 22 23  1  0
 23 24  1  0
 20 25  2  0
 25 26  1  0
 26 27  1  0
 27 28  1  0
 13  4  1  0
 28 15  1  0
 12  7  1  0
 26 18  2  0
 24 21  1  0
M  END
>  <AAScore>  (1) 
-6.758532220106573

>  <RootName>  (1) 
./4ZLY/04_DeltaGEst/trajectory_04/rank_01/lead_0484

$$$$
