confid_4
     RDKit          3D

 26 28  0  0  0  0  0  0  0  0999 V2000
   24.5700   26.8800   35.5900 N   0  0  0  0  0  0  0  0  0  0  0  0
   25.5000   26.4000   34.6900 C   0  0  0  0  0  0  0  0  0  0  0  0
   25.1700   25.5200   33.9100 O   0  0  0  0  0  0  0  0  0  0  0  0
   26.8400   27.0200   34.7400 C   0  0  0  0  0  0  0  0  0  0  0  0
   27.3800   27.2800   35.9400 N   0  0  0  0  0  0  0  0  0  0  0  0
   28.6200   27.7400   36.0300 N   0  0  0  0  0  0  0  0  0  0  0  0
   29.3800   28.0000   34.9600 C   0  0  0  0  0  0  0  0  0  0  0  0
   30.6700   28.5000   35.1300 C   0  0  0  0  0  0  0  0  0  0  0  0
   31.5400   28.6100   34.0300 C   0  0  0  0  0  0  0  0  0  0  0  0
   31.0900   28.2200   32.7700 C   0  0  0  0  0  0  0  0  0  0  0  0
   29.8000   27.7000   32.6000 C   0  0  0  0  0  0  0  0  0  0  0  0
   28.9600   27.5500   33.7100 C   0  0  0  0  0  0  0  0  0  0  0  0
   27.6600   27.0300   33.5900 C   0  0  0  0  0  0  0  0  0  0  0  0
   27.1600   26.7400   32.3400 N   0  0  0  0  0  0  0  0  0  0  0  0
   33.1604   29.2855   34.2339 S   0  0  0  0  0  6  0  0  0  0  0  0
   34.0629   28.7393   33.1622 O   0  0  0  0  0  0  0  0  0  0  0  0
   33.7080   28.8571   35.5673 O   0  0  0  0  0  0  0  0  0  0  0  0
   33.1579   31.0351   34.1441 N   0  0  0  0  0  0  0  0  0  0  0  0
   32.6770   31.5123   32.8330 C   0  0  0  0  0  0  0  0  0  0  0  0
   31.5916   32.5726   33.0898 C   0  0  1  0  0  0  0  0  0  0  0  0
   30.4874   32.6501   31.9933 C   0  0  0  0  0  0  0  0  0  0  0  0
   29.6312   31.3949   31.7724 C   0  0  0  0  0  0  0  0  0  0  0  0
   31.0741   32.2082   34.4783 C   0  0  0  0  0  0  0  0  0  0  0  0
   32.2915   31.6254   35.1758 C   0  0  0  0  0  0  0  0  0  0  0  0
   32.2377   33.9049   33.1637 C   0  0  0  0  0  0  0  0  0  0  0  0
   32.7421   34.9452   33.2216 N   0  0  0  0  0  0  0  0  0  0  0  0
  1  2  1  0
  2  3  2  0
  2  4  1  0
  4  5  2  0
  5  6  1  0
  6  7  2  0
  7  8  1  0
  8  9  2  0
  9 10  1  0
 10 11  2  0
 11 12  1  0
 12 13  2  0
 13 14  1  0
  9 15  1  0
 15 16  2  0
 15 17  2  0
 15 18  1  0
 18 19  1  0
 19 20  1  0
 20 21  1  6
 21 22  1  0
 20 23  1  0
 23 24  1  0
 20 25  1  0
 25 26  3  0
 13  4  1  0
 24 18  1  0
 12  7  1  0
M  END
>  <AAScore>  (1) 
-5.582579540344836

>  <RootName>  (1) 
./4ZLY/04_DeltaGEst/trajectory_05/rank_01/lead_0489

$$$$
