confid_2
     RDKit          3D

 27 30  0  0  0  0  0  0  0  0999 V2000
   24.6900   26.1200   35.5300 N   0  0  0  0  0  0  0  0  0  0  0  0
   25.6600   25.6700   34.6600 C   0  0  0  0  0  0  0  0  0  0  0  0
   25.2400   25.0100   33.7200 O   0  0  0  0  0  0  0  0  0  0  0  0
   27.0300   26.2200   34.8800 C   0  0  0  0  0  0  0  0  0  0  0  0
   27.3500   26.7300   36.0700 N   0  0  0  0  0  0  0  0  0  0  0  0
   28.5700   27.1800   36.3300 N   0  0  0  0  0  0  0  0  0  0  0  0
   29.5300   27.1100   35.3900 C   0  0  0  0  0  0  0  0  0  0  0  0
   30.8300   27.5700   35.6500 C   0  0  0  0  0  0  0  0  0  0  0  0
   31.8500   27.5400   34.6900 C   0  0  0  0  0  0  0  0  0  0  0  0
   31.5100   27.1200   33.4000 C   0  0  0  0  0  0  0  0  0  0  0  0
   30.2200   26.6300   33.1100 C   0  0  0  0  0  0  0  0  0  0  0  0
   29.2400   26.6600   34.1000 C   0  0  0  0  0  0  0  0  0  0  0  0
   27.9300   26.2600   33.8100 C   0  0  0  0  0  0  0  0  0  0  0  0
   27.5200   25.7100   32.6100 N   0  0  0  0  0  0  0  0  0  0  0  0
   31.1841   28.0736   37.0005 C   0  0  0  0  0  0  0  0  0  0  0  0
   31.7608   29.3536   37.1484 C   0  0  0  0  0  0  0  0  0  0  0  0
   32.0978   29.8008   38.4274 C   0  0  0  0  0  0  0  0  0  0  0  0
   32.6866   31.1258   38.7922 C   0  0  0  0  0  0  0  0  0  0  0  0
   32.9041   31.0565   40.3428 C   0  0  1  0  0  0  0  0  0  0  0  0
   34.4045   31.0380   40.7194 C   0  0  0  0  0  0  0  0  0  0  0  0
   32.1613   32.0589   41.0292 O   0  0  0  0  0  0  0  0  0  0  0  0
   32.7053   33.3548   40.8655 C   0  0  0  0  0  0  0  0  0  0  0  0
   32.3130   29.7227   40.7038 C   0  0  0  0  0  0  0  0  0  0  0  0
   32.2164   29.2762   41.8785 O   0  0  0  0  0  0  0  0  0  0  0  0
   31.8736   29.0171   39.5269 C   0  0  0  0  0  0  0  0  0  0  0  0
   31.3129   27.7449   39.4219 C   0  0  0  0  0  0  0  0  0  0  0  0
   30.9698   27.2709   38.1467 C   0  0  0  0  0  0  0  0  0  0  0  0
  1  2  1  0
  2  3  2  0
  2  4  1  0
  4  5  2  0
  5  6  1  0
  6  7  2  0
  7  8  1  0
  8  9  2  0
  9 10  1  0
 10 11  2  0
 11 12  1  0
 12 13  2  0
 13 14  1  0
  8 15  1  0
 15 16  2  0
 16 17  1  0
 17 18  1  0
 18 19  1  0
 19 20  1  6
 19 21  1  0
 21 22  1  0
 19 23  1  0
 23 24  2  0
 23 25  1  0
 25 26  1  0
 26 27  2  0
 13  4  1  0
 27 15  1  0
 12  7  1  0
 25 17  2  0
M  END
>  <AAScore>  (1) 
13.573129898476337

>  <RootName>  (1) 
./4ZLY/04_DeltaGEst/trajectory_02/rank_01/lead_0127

$$$$
