confid_10
     RDKit          3D

 27 30  0  0  0  0  0  0  0  0999 V2000
   24.5700   26.8800   35.5900 N   0  0  0  0  0  0  0  0  0  0  0  0
   25.5000   26.4000   34.6900 C   0  0  0  0  0  0  0  0  0  0  0  0
   25.1700   25.5200   33.9100 O   0  0  0  0  0  0  0  0  0  0  0  0
   26.8400   27.0200   34.7400 C   0  0  0  0  0  0  0  0  0  0  0  0
   27.3800   27.2800   35.9400 N   0  0  0  0  0  0  0  0  0  0  0  0
   28.6200   27.7400   36.0300 N   0  0  0  0  0  0  0  0  0  0  0  0
   29.3800   28.0000   34.9600 C   0  0  0  0  0  0  0  0  0  0  0  0
   30.6700   28.5000   35.1300 C   0  0  0  0  0  0  0  0  0  0  0  0
   31.5400   28.6100   34.0300 C   0  0  0  0  0  0  0  0  0  0  0  0
   31.0900   28.2200   32.7700 C   0  0  0  0  0  0  0  0  0  0  0  0
   29.8000   27.7000   32.6000 C   0  0  0  0  0  0  0  0  0  0  0  0
   28.9600   27.5500   33.7100 C   0  0  0  0  0  0  0  0  0  0  0  0
   27.6600   27.0300   33.5900 C   0  0  0  0  0  0  0  0  0  0  0  0
   27.1600   26.7400   32.3400 N   0  0  0  0  0  0  0  0  0  0  0  0
   23.1484   26.7010   35.4640 C   0  0  0  0  0  0  0  0  0  0  0  0
   22.3996   26.5757   36.5902 N   0  0  0  0  0  0  0  0  0  0  0  0
   21.0519   26.4275   36.5468 C   0  0  0  0  0  0  0  0  0  0  0  0
   20.3759   26.4292   35.3239 C   0  0  0  0  0  0  0  0  0  0  0  0
   18.9846   26.2962   35.3445 O   0  0  0  0  0  0  0  0  0  0  0  0
   18.1069   27.1455   34.6131 C   0  0  0  0  0  0  0  0  0  0  0  0
   18.1020   26.8083   33.2450 O   0  0  0  0  0  0  0  0  0  0  0  0
   19.2450   27.3280   32.5990 C   0  0  0  0  0  0  0  0  0  0  0  0
   20.4498   26.3963   32.7683 C   0  0  0  0  0  0  0  0  0  0  0  0
   20.0424   25.0807   32.6232 F   0  0  0  0  0  0  0  0  0  0  0  0
   21.3445   26.6765   31.7465 F   0  0  0  0  0  0  0  0  0  0  0  0
   21.1138   26.5573   34.1248 C   0  0  0  0  0  0  0  0  0  0  0  0
   22.5126   26.7029   34.2113 C   0  0  0  0  0  0  0  0  0  0  0  0
  1  2  1  0
  2  3  2  0
  2  4  1  0
  4  5  2  0
  5  6  1  0
  6  7  2  0
  7  8  1  0
  8  9  2  0
  9 10  1  0
 10 11  2  0
 11 12  1  0
 12 13  2  0
 13 14  1  0
  1 15  1  0
 15 16  2  0
 16 17  1  0
 17 18  2  0
 18 19  1  0
 19 20  1  0
 20 21  1  0
 21 22  1  0
 22 23  1  0
 23 24  1  0
 23 25  1  0
 23 26  1  0
 26 27  2  0
 13  4  1  0
 27 15  1  0
 12  7  1  0
 26 18  1  0
M  END
>  <AAScore>  (1) 
577.2845260784947

>  <RootName>  (1) 
./4ZLY/04_DeltaGEst/trajectory_05/rank_00/lead_0221

$$$$
