confid_2
     RDKit          3D

 29 32  0  0  0  0  0  0  0  0999 V2000
   24.6900   26.1200   35.5300 N   0  0  0  0  0  0  0  0  0  0  0  0
   25.6600   25.6700   34.6600 C   0  0  0  0  0  0  0  0  0  0  0  0
   25.2400   25.0100   33.7200 O   0  0  0  0  0  0  0  0  0  0  0  0
   27.0300   26.2200   34.8800 C   0  0  0  0  0  0  0  0  0  0  0  0
   27.3500   26.7300   36.0700 N   0  0  0  0  0  0  0  0  0  0  0  0
   28.5700   27.1800   36.3300 N   0  0  0  0  0  0  0  0  0  0  0  0
   29.5300   27.1100   35.3900 C   0  0  0  0  0  0  0  0  0  0  0  0
   30.8300   27.5700   35.6500 C   0  0  0  0  0  0  0  0  0  0  0  0
   31.8500   27.5400   34.6900 C   0  0  0  0  0  0  0  0  0  0  0  0
   31.5100   27.1200   33.4000 C   0  0  0  0  0  0  0  0  0  0  0  0
   30.2200   26.6300   33.1100 C   0  0  0  0  0  0  0  0  0  0  0  0
   29.2400   26.6600   34.1000 C   0  0  0  0  0  0  0  0  0  0  0  0
   27.9300   26.2600   33.8100 C   0  0  0  0  0  0  0  0  0  0  0  0
   27.5200   25.7100   32.6100 N   0  0  0  0  0  0  0  0  0  0  0  0
   31.1351   28.1057   36.9521 N   0  0  0  0  0  0  0  0  0  0  0  0
   30.5031   29.3574   37.3906 C   0  0  0  0  0  0  0  0  0  0  0  0
   31.5706   30.3421   37.8958 C   0  0  0  0  0  0  0  0  0  0  0  0
   32.8662   30.0284   37.2604 N   0  0  0  0  0  0  0  0  0  0  0  0
   33.8534   31.1116   37.4435 C   0  0  0  0  0  0  0  0  0  0  0  0
   33.7214   32.1532   36.3238 C   0  0  0  0  0  0  0  0  0  0  0  0
   33.7839   31.5033   34.9619 C   0  0  0  0  0  0  0  0  0  0  0  0
   32.6061   31.1927   34.2537 C   0  0  0  0  0  0  0  0  0  0  0  0
   31.3880   31.5189   34.7548 F   0  0  0  0  0  0  0  0  0  0  0  0
   32.6800   30.5307   33.0240 C   0  0  0  0  0  0  0  0  0  0  0  0
   33.9206   30.1657   32.4961 C   0  0  0  0  0  0  0  0  0  0  0  0
   35.0926   30.4643   33.1951 C   0  0  0  0  0  0  0  0  0  0  0  0
   35.0265   31.1275   34.4240 C   0  0  0  0  0  0  0  0  0  0  0  0
   33.3858   28.7320   37.7488 C   0  0  0  0  0  0  0  0  0  0  0  0
   32.3036   27.6327   37.7022 C   0  0  0  0  0  0  0  0  0  0  0  0
  1  2  1  0
  2  3  2  0
  2  4  1  0
  4  5  2  0
  5  6  1  0
  6  7  2  0
  7  8  1  0
  8  9  2  0
  9 10  1  0
 10 11  2  0
 11 12  1  0
 12 13  2  0
 13 14  1  0
  8 15  1  0
 15 16  1  0
 16 17  1  0
 17 18  1  0
 18 19  1  0
 19 20  1  0
 20 21  1  0
 21 22  2  0
 22 23  1  0
 22 24  1  0
 24 25  2  0
 25 26  1  0
 26 27  2  0
 18 28  1  0
 28 29  1  0
 13  4  1  0
 29 15  1  0
 12  7  1  0
 27 21  1  0
M  END
>  <AAScore>  (1) 
29.4169577472258

>  <RootName>  (1) 
./4ZLY/04_DeltaGEst/trajectory_02/rank_01/lead_0423

$$$$
