confid_12
     RDKit          3D

 30 34  0  0  0  0  0  0  0  0999 V2000
   24.5700   26.8800   35.5900 N   0  0  0  0  0  0  0  0  0  0  0  0
   25.5000   26.4000   34.6900 C   0  0  0  0  0  0  0  0  0  0  0  0
   25.1700   25.5200   33.9100 O   0  0  0  0  0  0  0  0  0  0  0  0
   26.8400   27.0200   34.7400 C   0  0  0  0  0  0  0  0  0  0  0  0
   27.3800   27.2800   35.9400 N   0  0  0  0  0  0  0  0  0  0  0  0
   28.6200   27.7400   36.0300 N   0  0  0  0  0  0  0  0  0  0  0  0
   29.3800   28.0000   34.9600 C   0  0  0  0  0  0  0  0  0  0  0  0
   30.6700   28.5000   35.1300 C   0  0  0  0  0  0  0  0  0  0  0  0
   31.5400   28.6100   34.0300 C   0  0  0  0  0  0  0  0  0  0  0  0
   31.0900   28.2200   32.7700 C   0  0  0  0  0  0  0  0  0  0  0  0
   29.8000   27.7000   32.6000 C   0  0  0  0  0  0  0  0  0  0  0  0
   28.9600   27.5500   33.7100 C   0  0  0  0  0  0  0  0  0  0  0  0
   27.6600   27.0300   33.5900 C   0  0  0  0  0  0  0  0  0  0  0  0
   27.1600   26.7400   32.3400 N   0  0  0  0  0  0  0  0  0  0  0  0
   23.4237   26.1230   35.3099 C   0  0  0  0  0  0  0  0  0  0  0  0
   22.5502   25.5462   35.0964 N   0  0  0  0  0  0  0  0  0  0  0  0
   21.5868   24.7010   34.6113 C   0  0  0  0  0  0  0  0  0  0  0  0
   20.7280   25.2297   33.6989 C   0  0  0  0  0  0  0  0  0  0  0  0
   20.9529   26.6660   33.3493 C   0  0  2  0  0  0  0  0  0  0  0  0
   20.7623   27.5303   34.5222 C   0  0  0  0  0  0  0  0  0  0  0  0
   20.5713   26.8792   35.8118 N   0  0  0  0  0  0  0  0  0  0  0  0
   19.2309   26.2850   36.0219 C   0  0  0  0  0  0  0  0  0  0  0  0
   19.0519   25.9977   37.4872 C   0  0  0  0  0  0  0  0  0  0  0  0
   19.5022   27.1316   38.1933 O   0  0  0  0  0  0  0  0  0  0  0  0
   20.8543   27.1972   38.2481 C   0  0  0  0  0  0  0  0  0  0  0  0
   21.3253   28.5839   38.5489 C   0  0  0  0  0  0  0  0  0  0  0  0
   21.4578   26.2330   39.2618 C   0  0  0  0  0  0  0  0  0  0  0  0
   21.4836   26.8191   36.8625 C   0  0  0  0  0  0  0  0  0  0  0  0
   22.6828   26.5812   36.9004 N   0  0  0  0  0  0  0  0  0  0  0  0
   19.8520   25.9609   32.6987 C   0  0  0  0  0  0  0  0  0  0  0  0
  1  2  1  0
  2  3  2  0
  2  4  1  0
  4  5  2  0
  5  6  1  0
  6  7  2  0
  7  8  1  0
  8  9  2  0
  9 10  1  0
 10 11  2  0
 11 12  1  0
 12 13  2  0
 13 14  1  0
  1 15  1  0
 15 16  2  0
 16 17  1  0
 17 18  2  0
 18 19  1  0
 19 20  1  1
 20 21  1  0
 21 22  1  0
 22 23  1  0
 23 24  1  0
 24 25  1  0
 25 26  1  0
 25 27  1  0
 25 28  1  0
 28 29  2  0
 19 30  1  0
 13  4  1  0
 29 15  1  0
 12  7  1  0
 30 18  1  0
 28 21  1  0
M  END
>  <AAScore>  (1) 
3702.9399690903474

>  <RootName>  (1) 
./4ZLY/04_DeltaGEst/trajectory_05/rank_00/lead_0063

$$$$
