confid_8
     RDKit          3D

 32 35  0  0  0  0  0  0  0  0999 V2000
   24.2000   26.2400   35.6900 N   0  0  0  0  0  0  0  0  0  0  0  0
   24.8500   26.2800   34.4800 C   0  0  0  0  0  0  0  0  0  0  0  0
   24.3100   25.7400   33.5400 O   0  0  0  0  0  0  0  0  0  0  0  0
   26.1800   26.9700   34.4700 C   0  0  0  0  0  0  0  0  0  0  0  0
   26.6500   27.6000   35.5500 N   0  0  0  0  0  0  0  0  0  0  0  0
   27.7900   28.2700   35.6200 N   0  0  0  0  0  0  0  0  0  0  0  0
   28.5400   28.3000   34.5100 C   0  0  0  0  0  0  0  0  0  0  0  0
   29.7700   28.9400   34.5600 C   0  0  0  0  0  0  0  0  0  0  0  0
   30.7000   28.8900   33.5000 C   0  0  0  0  0  0  0  0  0  0  0  0
   30.3700   28.1400   32.3700 C   0  0  0  0  0  0  0  0  0  0  0  0
   29.1200   27.5200   32.2800 C   0  0  0  0  0  0  0  0  0  0  0  0
   28.2100   27.6100   33.3300 C   0  0  0  0  0  0  0  0  0  0  0  0
   26.9700   26.9700   33.3100 C   0  0  0  0  0  0  0  0  0  0  0  0
   26.5300   26.2400   32.2200 N   0  0  0  0  0  0  0  0  0  0  0  0
   23.1709   25.2908   36.0220 C   0  0  0  0  0  0  0  0  0  0  0  0
   22.1111   25.7443   36.6290 N   0  0  0  0  0  0  0  0  0  0  0  0
   20.9635   25.0295   37.1048 C   0  0  0  0  0  0  0  0  0  0  0  0
   19.7988   25.0294   36.4369 C   0  0  0  0  0  0  0  0  0  0  0  0
   18.5125   25.3202   37.1656 C   0  0  0  0  0  0  0  0  0  0  0  0
   17.8208   26.2260   36.2633 N   0  0  0  0  0  0  0  0  0  0  0  0
   18.5176   26.2835   35.0268 C   0  0  0  0  0  0  0  0  0  0  0  0
   18.1793   27.0404   34.0779 O   0  0  0  0  0  0  0  0  0  0  0  0
   19.6336   25.3024   34.9594 C   0  0  2  0  0  0  0  0  0  0  0  0
   19.0933   24.0615   34.1970 C   0  0  0  0  0  0  0  0  0  0  0  0
   20.0432   22.8657   34.0748 C   0  0  0  0  0  0  0  0  0  0  0  0
   20.4140   22.3989   35.3611 O   0  0  0  0  0  0  0  0  0  0  0  0
   20.8857   21.0617   35.3223 C   0  0  0  0  0  0  0  0  0  0  0  0
   22.3820   20.9747   34.9697 C   0  0  0  0  0  0  0  0  0  0  0  0
   23.3304   21.3667   36.1239 C   0  0  0  0  0  0  0  0  0  0  0  0
   23.1481   22.7960   36.6645 C   0  0  0  0  0  0  0  0  0  0  0  0
   23.3078   23.8559   35.5623 C   0  0  0  0  0  0  0  0  0  0  0  0
   16.5621   26.9019   36.5509 C   0  0  0  0  0  0  0  0  0  0  0  0
  1  2  1  0
  2  3  2  0
  2  4  1  0
  4  5  2  0
  5  6  1  0
  6  7  2  0
  7  8  1  0
  8  9  2  0
  9 10  1  0
 10 11  2  0
 11 12  1  0
 12 13  2  0
 13 14  1  0
  1 15  1  0
 15 16  2  0
 16 17  1  0
 17 18  2  0
 18 19  1  0
 19 20  1  0
 20 21  1  0
 21 22  2  0
 21 23  1  0
 23 24  1  6
 24 25  1  0
 25 26  1  0
 26 27  1  0
 27 28  1  0
 28 29  1  0
 29 30  1  0
 30 31  1  0
 20 32  1  0
 13  4  1  0
 31 15  1  0
 12  7  1  0
 23 18  1  0
M  END
>  <AAScore>  (1) 
3670.305722027467

>  <RootName>  (1) 
./4ZLY/04_DeltaGEst/trajectory_04/rank_00/lead_0036

$$$$
