confid_4
     RDKit          3D

 27 30  0  0  0  0  0  0  0  0999 V2000
   24.2000   26.2400   35.6900 N   0  0  0  0  0  0  0  0  0  0  0  0
   24.8500   26.2800   34.4800 C   0  0  0  0  0  0  0  0  0  0  0  0
   24.3100   25.7400   33.5400 O   0  0  0  0  0  0  0  0  0  0  0  0
   26.1800   26.9700   34.4700 C   0  0  0  0  0  0  0  0  0  0  0  0
   26.6500   27.6000   35.5500 N   0  0  0  0  0  0  0  0  0  0  0  0
   27.7900   28.2700   35.6200 N   0  0  0  0  0  0  0  0  0  0  0  0
   28.5400   28.3000   34.5100 C   0  0  0  0  0  0  0  0  0  0  0  0
   29.7700   28.9400   34.5600 C   0  0  0  0  0  0  0  0  0  0  0  0
   30.7000   28.8900   33.5000 C   0  0  0  0  0  0  0  0  0  0  0  0
   30.3700   28.1400   32.3700 C   0  0  0  0  0  0  0  0  0  0  0  0
   29.1200   27.5200   32.2800 C   0  0  0  0  0  0  0  0  0  0  0  0
   28.2100   27.6100   33.3300 C   0  0  0  0  0  0  0  0  0  0  0  0
   26.9700   26.9700   33.3100 C   0  0  0  0  0  0  0  0  0  0  0  0
   26.5300   26.2400   32.2200 N   0  0  0  0  0  0  0  0  0  0  0  0
   22.7754   26.0975   35.8435 C   0  0  0  0  0  0  0  0  0  0  0  0
   22.3418   25.4427   36.8797 N   0  0  0  0  0  0  0  0  0  0  0  0
   21.0229   25.1035   37.3483 C   0  0  0  0  0  0  0  0  0  0  0  0
   19.8278   25.6265   36.9815 C   0  0  0  0  0  0  0  0  0  0  0  0
   18.6087   25.0132   37.6269 C   0  0  0  0  0  0  0  0  0  0  0  0
   17.3735   25.7518   37.3240 N   0  0  0  0  0  0  0  0  0  0  0  0
   16.5908   25.2671   36.1678 C   0  0  0  0  0  0  0  0  0  0  0  0
   15.2159   25.9277   36.1316 C   0  0  0  0  0  0  0  0  0  0  0  0
   17.5597   27.1117   37.3668 O   0  0  0  0  0  0  0  0  0  0  0  0
   18.3637   27.5704   36.2882 C   0  0  0  0  0  0  0  0  0  0  0  0
   19.5649   26.6582   35.9072 C   0  0  1  0  0  0  0  0  0  0  0  0
   20.7667   27.5261   35.5191 C   0  0  0  0  0  0  0  0  0  0  0  0
   21.8482   26.7030   34.8341 C   0  0  0  0  0  0  0  0  0  0  0  0
  1  2  1  0
  2  3  2  0
  2  4  1  0
  4  5  2  0
  5  6  1  0
  6  7  2  0
  7  8  1  0
  8  9  2  0
  9 10  1  0
 10 11  2  0
 11 12  1  0
 12 13  2  0
 13 14  1  0
  1 15  1  0
 15 16  2  0
 16 17  1  0
 17 18  2  0
 18 19  1  0
 19 20  1  0
 20 21  1  0
 21 22  1  0
 20 23  1  0
 23 24  1  0
 25 24  1  1
 25 26  1  0
 26 27  1  0
 13  4  1  0
 27 15  1  0
 12  7  1  0
 25 18  1  0
M  END
>  <AAScore>  (1) 
167.97709211569932

>  <RootName>  (1) 
./4ZLY/04_DeltaGEst/trajectory_04/rank_00/lead_0328

$$$$
