confid_3
     RDKit          3D

 27 30  0  0  0  0  0  0  0  0999 V2000
   24.4800   26.1000   36.1300 N   0  0  0  0  0  0  0  0  0  0  0  0
   25.2500   26.2500   34.9900 C   0  0  0  0  0  0  0  0  0  0  0  0
   24.7400   25.7600   33.9900 O   0  0  0  0  0  0  0  0  0  0  0  0
   26.5900   26.8900   34.9600 C   0  0  0  0  0  0  0  0  0  0  0  0
   27.0600   27.2400   36.1600 N   0  0  0  0  0  0  0  0  0  0  0  0
   28.3000   27.7100   36.2400 N   0  0  0  0  0  0  0  0  0  0  0  0
   29.0500   27.9600   35.1500 C   0  0  0  0  0  0  0  0  0  0  0  0
   30.3400   28.4900   35.2600 C   0  0  0  0  0  0  0  0  0  0  0  0
   31.1100   28.8200   34.1400 C   0  0  0  0  0  0  0  0  0  0  0  0
   30.5200   28.6700   32.8800 C   0  0  0  0  0  0  0  0  0  0  0  0
   29.2900   28.0200   32.7700 C   0  0  0  0  0  0  0  0  0  0  0  0
   28.5200   27.7100   33.8900 C   0  0  0  0  0  0  0  0  0  0  0  0
   27.2700   27.0800   33.7600 C   0  0  0  0  0  0  0  0  0  0  0  0
   26.7500   26.8800   32.4900 N   0  0  0  0  0  0  0  0  0  0  0  0
   23.0474   25.9952   36.1314 C   0  0  0  0  0  0  0  0  0  0  0  0
   22.3825   25.1758   36.9765 N   0  0  0  0  0  0  0  0  0  0  0  0
   21.0799   25.3893   36.6896 C   0  0  0  0  0  0  0  0  0  0  0  0
   20.9870   26.3413   35.6988 C   0  0  0  0  0  0  0  0  0  0  0  0
   19.7455   26.8905   35.0681 C   0  0  0  0  0  0  0  0  0  0  0  0
   20.0428   28.0378   34.1840 N   0  0  0  0  0  0  0  0  0  0  0  0
   18.9752   28.6434   33.4164 C   0  0  0  0  0  0  0  0  0  0  0  0
   19.1147   29.8100   32.9570 O   0  0  0  0  0  0  0  0  0  0  0  0
   17.7030   27.9050   33.0945 C   0  0  0  0  0  0  0  0  0  0  0  0
   17.9077   26.9719   31.9058 C   0  0  0  0  0  0  0  0  0  0  0  0
   21.3341   28.7488   34.2956 C   0  0  0  0  0  0  0  0  0  0  0  0
   22.5071   27.7647   34.3683 C   0  0  0  0  0  0  0  0  0  0  0  0
   22.2189   26.7321   35.3576 N   0  0  0  0  0  0  0  0  0  0  0  0
  1  2  1  0
  2  3  2  0
  2  4  1  0
  4  5  2  0
  5  6  1  0
  6  7  2  0
  7  8  1  0
  8  9  2  0
  9 10  1  0
 10 11  2  0
 11 12  1  0
 12 13  2  0
 13 14  1  0
  1 15  1  0
 15 16  2  0
 16 17  1  0
 17 18  2  0
 18 19  1  0
 19 20  1  0
 20 21  1  0
 21 22  2  0
 21 23  1  0
 23 24  1  0
 20 25  1  0
 25 26  1  0
 26 27  1  0
 13  4  1  0
 27 15  1  0
 12  7  1  0
 27 18  1  0
M  END
>  <AAScore>  (1) 
1045.1087671180485

>  <RootName>  (1) 
./4ZLY/04_DeltaGEst/trajectory_00/rank_00/lead_0049

$$$$
