confid_6
     RDKit          3D

 28 30  0  0  0  0  0  0  0  0999 V2000
   24.5700   26.8800   35.5900 N   0  0  0  0  0  0  0  0  0  0  0  0
   25.5000   26.4000   34.6900 C   0  0  0  0  0  0  0  0  0  0  0  0
   25.1700   25.5200   33.9100 O   0  0  0  0  0  0  0  0  0  0  0  0
   26.8400   27.0200   34.7400 C   0  0  0  0  0  0  0  0  0  0  0  0
   27.3800   27.2800   35.9400 N   0  0  0  0  0  0  0  0  0  0  0  0
   28.6200   27.7400   36.0300 N   0  0  0  0  0  0  0  0  0  0  0  0
   29.3800   28.0000   34.9600 C   0  0  0  0  0  0  0  0  0  0  0  0
   30.6700   28.5000   35.1300 C   0  0  0  0  0  0  0  0  0  0  0  0
   31.5400   28.6100   34.0300 C   0  0  0  0  0  0  0  0  0  0  0  0
   31.0900   28.2200   32.7700 C   0  0  0  0  0  0  0  0  0  0  0  0
   29.8000   27.7000   32.6000 C   0  0  0  0  0  0  0  0  0  0  0  0
   28.9600   27.5500   33.7100 C   0  0  0  0  0  0  0  0  0  0  0  0
   27.6600   27.0300   33.5900 C   0  0  0  0  0  0  0  0  0  0  0  0
   27.1600   26.7400   32.3400 N   0  0  0  0  0  0  0  0  0  0  0  0
   33.1705   29.2427   34.2573 S   0  0  0  0  0  6  0  0  0  0  0  0
   33.9216   28.2690   35.1207 O   0  0  0  0  0  0  0  0  0  0  0  0
   33.8764   29.3325   32.9343 O   0  0  0  0  0  0  0  0  0  0  0  0
   33.1617   30.8414   35.0923 C   0  0  0  0  0  0  0  0  0  0  0  0
   32.7372   32.0762   34.2563 C   0  0  2  0  0  0  0  0  0  0  0  0
   31.3313   31.9599   33.6091 C   0  0  0  0  0  0  0  0  0  0  0  0
   31.4062   31.7313   32.0955 C   0  0  0  0  0  0  0  0  0  0  0  0
   32.1465   32.8844   31.3672 C   0  0  2  0  0  0  0  0  0  0  0  0
   32.7196   32.3969   30.0168 C   0  0  0  0  0  0  0  0  0  0  0  0
   31.6740   31.7565   29.1859 N   0  0  0  0  0  0  0  0  0  0  0  0
   32.2835   30.8076   28.2406 C   0  0  0  0  0  0  0  0  0  0  0  0
   30.8974   32.7623   28.4401 C   0  0  0  0  0  0  0  0  0  0  0  0
   33.2614   33.5247   32.2403 C   0  0  0  0  0  0  0  0  0  0  0  0
   33.8327   32.5363   33.2630 C   0  0  0  0  0  0  0  0  0  0  0  0
  1  2  1  0
  2  3  2  0
  2  4  1  0
  4  5  2  0
  5  6  1  0
  6  7  2  0
  7  8  1  0
  8  9  2  0
  9 10  1  0
 10 11  2  0
 11 12  1  0
 12 13  2  0
 13 14  1  0
  9 15  1  0
 15 16  2  0
 15 17  2  0
 15 18  1  0
 19 18  1  6
 19 20  1  0
 20 21  1  0
 21 22  1  0
 22 23  1  6
 23 24  1  0
 24 25  1  0
 24 26  1  0
 22 27  1  0
 27 28  1  0
 13  4  1  0
 28 19  1  0
 12  7  1  0
M  END
>  <AAScore>  (1) 
-0.3188373610964582

>  <RootName>  (1) 
./4ZLY/04_DeltaGEst/trajectory_05/rank_01/lead_0075

$$$$
