confid_14
     RDKit          3D

 29 34  0  0  0  0  0  0  0  0999 V2000
   24.5500   26.3900   36.2500 N   0  0  0  0  0  0  0  0  0  0  0  0
   25.6000   26.1300   35.4000 C   0  0  0  0  0  0  0  0  0  0  0  0
   25.4300   25.4300   34.4200 O   0  0  0  0  0  0  0  0  0  0  0  0
   26.9800   26.6300   35.7100 C   0  0  0  0  0  0  0  0  0  0  0  0
   27.3200   26.8200   36.9800 N   0  0  0  0  0  0  0  0  0  0  0  0
   28.4700   27.4000   37.3100 N   0  0  0  0  0  0  0  0  0  0  0  0
   29.4000   27.6300   36.3700 C   0  0  0  0  0  0  0  0  0  0  0  0
   30.6600   28.0500   36.8000 C   0  0  0  0  0  0  0  0  0  0  0  0
   31.5700   28.3600   35.7800 C   0  0  0  0  0  0  0  0  0  0  0  0
   31.3700   28.1000   34.4300 C   0  0  0  0  0  0  0  0  0  0  0  0
   30.1200   27.5900   34.0500 C   0  0  0  0  0  0  0  0  0  0  0  0
   29.1500   27.3400   35.0300 C   0  0  0  0  0  0  0  0  0  0  0  0
   27.8800   26.8900   34.6600 C   0  0  0  0  0  0  0  0  0  0  0  0
   27.4800   26.6100   33.3700 N   0  0  0  0  0  0  0  0  0  0  0  0
   23.2969   25.6824   36.2361 C   0  0  0  0  0  0  0  0  0  0  0  0
   22.9125   24.8741   35.1858 N   0  0  0  0  0  0  0  0  0  0  0  0
   21.6491   24.3086   35.0890 C   0  0  0  0  0  0  0  0  0  0  0  0
   20.6936   24.4908   36.1238 C   0  0  0  0  0  0  0  0  0  0  0  0
   19.2833   25.0932   35.9263 C   0  0  2  0  0  0  0  0  0  0  0  0
   19.1456   26.3179   36.9544 C   0  0  0  0  0  0  0  0  0  0  0  0
   20.3704   26.2312   37.7173 N   0  0  0  0  0  0  0  0  0  0  0  0
   21.6140   26.9006   37.8949 C   0  0  0  0  0  0  0  0  0  0  0  0
   22.3514   25.8659   37.2300 C   0  0  0  0  0  0  0  0  0  0  0  0
   21.1402   25.1738   37.1832 C   0  0  0  0  0  0  0  0  0  0  0  0
   18.1824   24.0721   36.1322 C   0  0  0  0  0  0  0  0  0  0  0  0
   17.0340   24.3801   35.8473 O   0  0  0  0  0  0  0  0  0  0  0  0
   18.4623   22.6752   36.6290 C   0  0  0  0  0  0  0  0  0  0  0  0
   18.9251   22.5984   38.0767 C   0  0  0  0  0  0  0  0  0  0  0  0
   17.5187   22.1649   37.7117 C   0  0  0  0  0  0  0  0  0  0  0  0
  1  2  1  0
  2  3  2  0
  2  4  1  0
  4  5  2  0
  5  6  1  0
  6  7  2  0
  7  8  1  0
  8  9  2  0
  9 10  1  0
 10 11  2  0
 11 12  1  0
 12 13  2  0
 13 14  1  0
  1 15  1  0
 15 16  2  0
 16 17  1  0
 17 18  2  0
 18 19  1  0
 19 20  1  0
 20 21  1  0
 21 22  1  0
 22 23  1  0
 23 24  2  0
 19 25  1  1
 25 26  2  0
 25 27  1  0
 27 28  1  0
 28 29  1  0
 13  4  1  0
 23 15  1  0
 29 27  1  0
 12  7  1  0
 24 18  1  0
 24 21  1  0
M  END
>  <AAScore>  (1) 
4687.172031677129

>  <RootName>  (1) 
./4ZLY/04_DeltaGEst/trajectory_01/rank_00/lead_0130

$$$$
