confid_4
     RDKit          3D

 30 34  0  0  0  0  0  0  0  0999 V2000
   24.5700   26.8800   35.5900 N   0  0  0  0  0  0  0  0  0  0  0  0
   25.5000   26.4000   34.6900 C   0  0  0  0  0  0  0  0  0  0  0  0
   25.1700   25.5200   33.9100 O   0  0  0  0  0  0  0  0  0  0  0  0
   26.8400   27.0200   34.7400 C   0  0  0  0  0  0  0  0  0  0  0  0
   27.3800   27.2800   35.9400 N   0  0  0  0  0  0  0  0  0  0  0  0
   28.6200   27.7400   36.0300 N   0  0  0  0  0  0  0  0  0  0  0  0
   29.3800   28.0000   34.9600 C   0  0  0  0  0  0  0  0  0  0  0  0
   30.6700   28.5000   35.1300 C   0  0  0  0  0  0  0  0  0  0  0  0
   31.5400   28.6100   34.0300 C   0  0  0  0  0  0  0  0  0  0  0  0
   31.0900   28.2200   32.7700 C   0  0  0  0  0  0  0  0  0  0  0  0
   29.8000   27.7000   32.6000 C   0  0  0  0  0  0  0  0  0  0  0  0
   28.9600   27.5500   33.7100 C   0  0  0  0  0  0  0  0  0  0  0  0
   27.6600   27.0300   33.5900 C   0  0  0  0  0  0  0  0  0  0  0  0
   27.1600   26.7400   32.3400 N   0  0  0  0  0  0  0  0  0  0  0  0
   23.1490   26.7743   35.4067 C   0  0  0  0  0  0  0  0  0  0  0  0
   22.3885   26.6279   36.4563 N   0  0  0  0  0  0  0  0  0  0  0  0
   20.9535   26.5931   36.3767 C   0  0  0  0  0  0  0  0  0  0  0  0
   20.3463   26.5126   35.1851 C   0  0  0  0  0  0  0  0  0  0  0  0
   21.1920   26.2509   33.9519 C   0  0  1  0  0  0  0  0  0  0  0  0
   20.4333   26.5227   32.6288 C   0  0  0  0  0  0  0  0  0  0  0  0
   19.3212   27.4617   32.8251 N   0  0  0  0  0  0  0  0  0  0  0  0
   19.2547   28.7222   32.0763 C   0  0  0  0  0  0  0  0  0  0  0  0
   18.1550   28.6765   31.0121 C   0  0  0  0  0  0  0  0  0  0  0  0
   16.7430   28.7889   31.6040 C   0  0  0  0  0  0  0  0  0  0  0  0
   16.3309   27.5469   32.4012 C   0  0  0  0  0  0  0  0  0  0  0  0
   16.9678   27.5149   33.7599 C   0  0  0  0  0  0  0  0  0  0  0  0
   16.2549   27.7292   34.7782 O   0  0  0  0  0  0  0  0  0  0  0  0
   18.4078   27.2159   33.9099 C   0  0  0  0  0  0  0  0  0  0  0  0
   18.8969   26.7447   35.0635 C   0  0  0  0  0  0  0  0  0  0  0  0
   22.5076   27.0407   34.0557 C   0  0  0  0  0  0  0  0  0  0  0  0
  1  2  1  0
  2  3  2  0
  2  4  1  0
  4  5  2  0
  5  6  1  0
  6  7  2  0
  7  8  1  0
  8  9  2  0
  9 10  1  0
 10 11  2  0
 11 12  1  0
 12 13  2  0
 13 14  1  0
  1 15  1  0
 15 16  2  0
 16 17  1  0
 17 18  2  0
 18 19  1  0
 19 20  1  6
 20 21  1  0
 21 22  1  0
 22 23  1  0
 23 24  1  0
 24 25  1  0
 25 26  1  0
 26 27  2  0
 26 28  1  0
 28 29  2  0
 19 30  1  0
 13  4  1  0
 30 15  1  0
 12  7  1  0
 29 18  1  0
 28 21  1  0
M  END
>  <AAScore>  (1) 
556.2297713904649

>  <RootName>  (1) 
./4ZLY/04_DeltaGEst/trajectory_05/rank_00/lead_0442

$$$$
