confid_8
     RDKit          3D

 29 32  0  0  0  0  0  0  0  0999 V2000
   24.4800   26.1000   36.1300 N   0  0  0  0  0  0  0  0  0  0  0  0
   25.2500   26.2500   34.9900 C   0  0  0  0  0  0  0  0  0  0  0  0
   24.7400   25.7600   33.9900 O   0  0  0  0  0  0  0  0  0  0  0  0
   26.5900   26.8900   34.9600 C   0  0  0  0  0  0  0  0  0  0  0  0
   27.0600   27.2400   36.1600 N   0  0  0  0  0  0  0  0  0  0  0  0
   28.3000   27.7100   36.2400 N   0  0  0  0  0  0  0  0  0  0  0  0
   29.0500   27.9600   35.1500 C   0  0  0  0  0  0  0  0  0  0  0  0
   30.3400   28.4900   35.2600 C   0  0  0  0  0  0  0  0  0  0  0  0
   31.1100   28.8200   34.1400 C   0  0  0  0  0  0  0  0  0  0  0  0
   30.5200   28.6700   32.8800 C   0  0  0  0  0  0  0  0  0  0  0  0
   29.2900   28.0200   32.7700 C   0  0  0  0  0  0  0  0  0  0  0  0
   28.5200   27.7100   33.8900 C   0  0  0  0  0  0  0  0  0  0  0  0
   27.2700   27.0800   33.7600 C   0  0  0  0  0  0  0  0  0  0  0  0
   26.7500   26.8800   32.4900 N   0  0  0  0  0  0  0  0  0  0  0  0
   23.0884   25.7374   36.1320 C   0  0  0  0  0  0  0  0  0  0  0  0
   22.6018   24.7776   36.9484 N   0  0  0  0  0  0  0  0  0  0  0  0
   21.2887   24.7228   36.6503 C   0  0  0  0  0  0  0  0  0  0  0  0
   21.0029   25.6451   35.6661 C   0  0  0  0  0  0  0  0  0  0  0  0
   19.6306   25.9221   35.1198 C   0  0  0  0  0  0  0  0  0  0  0  0
   19.7208   26.4128   33.7421 N   0  0  0  0  0  0  0  0  0  0  0  0
   19.7216   25.4644   32.6532 C   0  0  0  0  0  0  0  0  0  0  0  0
   20.1522   24.2934   32.8527 O   0  0  0  0  0  0  0  0  0  0  0  0
   19.2122   25.8342   31.2785 C   0  0  0  0  0  0  0  0  0  0  0  0
   20.3809   25.9676   30.2955 C   0  0  0  0  0  0  0  0  0  0  0  0
   18.1991   24.7974   30.7771 C   0  0  0  0  0  0  0  0  0  0  0  0
   19.9606   27.8475   33.5152 C   0  0  0  0  0  0  0  0  0  0  0  0
   21.0915   28.3836   34.4081 C   0  0  0  0  0  0  0  0  0  0  0  0
   22.3099   27.4470   34.4257 C   0  0  0  0  0  0  0  0  0  0  0  0
   22.1355   26.3218   35.3620 N   0  0  0  0  0  0  0  0  0  0  0  0
  1  2  1  0
  2  3  2  0
  2  4  1  0
  4  5  2  0
  5  6  1  0
  6  7  2  0
  7  8  1  0
  8  9  2  0
  9 10  1  0
 10 11  2  0
 11 12  1  0
 12 13  2  0
 13 14  1  0
  1 15  1  0
 15 16  2  0
 16 17  1  0
 17 18  2  0
 18 19  1  0
 19 20  1  0
 20 21  1  0
 21 22  2  0
 21 23  1  0
 23 24  1  0
 23 25  1  0
 20 26  1  0
 26 27  1  0
 27 28  1  0
 28 29  1  0
 13  4  1  0
 29 15  1  0
 12  7  1  0
 29 18  1  0
M  END
>  <AAScore>  (1) 
2613.9069881205555

>  <RootName>  (1) 
./4ZLY/04_DeltaGEst/trajectory_00/rank_00/lead_0110

$$$$
