confid_0
     RDKit          3D

 29 33  0  0  0  0  0  0  0  0999 V2000
   24.4800   26.1000   36.1300 N   0  0  0  0  0  0  0  0  0  0  0  0
   25.2500   26.2500   34.9900 C   0  0  0  0  0  0  0  0  0  0  0  0
   24.7400   25.7600   33.9900 O   0  0  0  0  0  0  0  0  0  0  0  0
   26.5900   26.8900   34.9600 C   0  0  0  0  0  0  0  0  0  0  0  0
   27.0600   27.2400   36.1600 N   0  0  0  0  0  0  0  0  0  0  0  0
   28.3000   27.7100   36.2400 N   0  0  0  0  0  0  0  0  0  0  0  0
   29.0500   27.9600   35.1500 C   0  0  0  0  0  0  0  0  0  0  0  0
   30.3400   28.4900   35.2600 C   0  0  0  0  0  0  0  0  0  0  0  0
   31.1100   28.8200   34.1400 C   0  0  0  0  0  0  0  0  0  0  0  0
   30.5200   28.6700   32.8800 C   0  0  0  0  0  0  0  0  0  0  0  0
   29.2900   28.0200   32.7700 C   0  0  0  0  0  0  0  0  0  0  0  0
   28.5200   27.7100   33.8900 C   0  0  0  0  0  0  0  0  0  0  0  0
   27.2700   27.0800   33.7600 C   0  0  0  0  0  0  0  0  0  0  0  0
   26.7500   26.8800   32.4900 N   0  0  0  0  0  0  0  0  0  0  0  0
   23.4854   25.0754   36.3408 C   0  0  0  0  0  0  0  0  0  0  0  0
   23.5482   23.9938   35.6078 N   0  0  0  0  0  0  0  0  0  0  0  0
   22.7740   22.7915   35.4703 C   0  0  0  0  0  0  0  0  0  0  0  0
   21.4678   22.7313   35.6852 C   0  0  0  0  0  0  0  0  0  0  0  0
   20.2974   22.0668   35.0172 C   0  0  0  0  0  0  0  0  0  0  0  0
   19.3364   22.8563   35.6414 O   0  0  0  0  0  0  0  0  0  0  0  0
   20.3554   23.4206   36.4000 C   0  0  2  0  0  0  0  0  0  0  0  0
   20.4589   24.9403   36.2990 C   0  0  0  0  0  0  0  0  0  0  0  0
   21.2679   25.3893   37.4868 C   0  0  0  0  0  0  0  0  0  0  0  0
   22.6145   25.2589   37.5292 C   0  0  0  0  0  0  0  0  0  0  0  0
   23.2889   25.4613   38.7388 O   0  0  0  0  0  0  0  0  0  0  0  0
   22.8059   26.3187   39.7662 C   0  0  0  0  0  0  0  0  0  0  0  0
   21.3189   26.2206   39.8853 C   0  0  0  0  0  0  0  0  0  0  0  0
   20.7724   26.5881   40.9139 O   0  0  0  0  0  0  0  0  0  0  0  0
   20.4827   25.7114   38.7454 C   0  0  0  0  0  0  0  0  0  0  0  0
  1  2  1  0
  2  3  2  0
  2  4  1  0
  4  5  2  0
  5  6  1  0
  6  7  2  0
  7  8  1  0
  8  9  2  0
  9 10  1  0
 10 11  2  0
 11 12  1  0
 12 13  2  0
 13 14  1  0
  1 15  1  0
 15 16  2  0
 16 17  1  0
 17 18  2  0
 18 19  1  0
 19 20  1  0
 20 21  1  0
 21 22  1  6
 22 23  1  0
 23 24  2  0
 24 25  1  0
 25 26  1  0
 26 27  1  0
 27 28  2  0
 27 29  1  0
 13  4  1  0
 24 15  1  0
 12  7  1  0
 21 18  1  0
 29 23  1  0
M  END
>  <AAScore>  (1) 
3079.31960526356

>  <RootName>  (1) 
./4ZLY/04_DeltaGEst/trajectory_00/rank_01/lead_0479

$$$$
