confid_0
     RDKit          3D

 27 30  0  0  0  0  0  0  0  0999 V2000
   25.3300   26.2600   34.7600 N   0  0  0  0  0  0  0  0  0  0  0  0
   26.1200   25.9200   33.6900 C   0  0  0  0  0  0  0  0  0  0  0  0
   25.6300   25.1100   32.9400 O   0  0  0  0  0  0  0  0  0  0  0  0
   27.5200   26.3800   33.4600 C   0  0  0  0  0  0  0  0  0  0  0  0
   28.1600   26.6300   34.6100 N   0  0  0  0  0  0  0  0  0  0  0  0
   29.4800   26.8500   34.5700 N   0  0  0  0  0  0  0  0  0  0  0  0
   30.1900   26.7800   33.4400 C   0  0  0  0  0  0  0  0  0  0  0  0
   31.5600   27.0500   33.5000 C   0  0  0  0  0  0  0  0  0  0  0  0
   32.2700   27.2400   32.3100 C   0  0  0  0  0  0  0  0  0  0  0  0
   31.6100   27.2500   31.0800 C   0  0  0  0  0  0  0  0  0  0  0  0
   30.2700   26.8700   31.0600 C   0  0  0  0  0  0  0  0  0  0  0  0
   29.5100   26.6900   32.2300 C   0  0  0  0  0  0  0  0  0  0  0  0
   28.1400   26.4100   32.2000 C   0  0  0  0  0  0  0  0  0  0  0  0
   27.4300   26.1300   31.0500 N   0  0  0  0  0  0  0  0  0  0  0  0
   24.1901   25.5083   35.2342 C   0  0  0  0  0  0  0  0  0  0  0  0
   24.0389   24.2015   34.8785 N   0  0  0  0  0  0  0  0  0  0  0  0
   22.9999   23.4364   35.3068 C   0  0  0  0  0  0  0  0  0  0  0  0
   22.9490   21.9914   34.9019 C   0  0  0  0  0  0  0  0  0  0  0  0
   21.5818   21.3532   35.1928 C   0  0  0  0  0  0  0  0  0  0  0  0
   21.0568   21.7229   36.5224 N   0  0  0  0  0  0  0  0  0  0  0  0
   20.8501   23.1807   36.6357 C   0  0  0  0  0  0  0  0  0  0  0  0
   22.0495   23.9826   36.1860 C   0  0  0  0  0  0  0  0  0  0  0  0
   22.1728   25.3245   36.5638 C   0  0  0  0  0  0  0  0  0  0  0  0
   23.2447   26.0945   36.1004 C   0  0  0  0  0  0  0  0  0  0  0  0
   23.3398   27.4763   36.5034 C   0  0  0  0  0  0  0  0  0  0  0  0
   23.4156   28.5848   36.8268 N   0  0  0  0  0  0  0  0  0  0  0  0
   21.8813   21.1960   37.6239 C   0  0  0  0  0  0  0  0  0  0  0  0
  1  2  1  0
  2  3  2  0
  2  4  1  0
  4  5  2  0
  5  6  1  0
  6  7  2  0
  7  8  1  0
  8  9  2  0
  9 10  1  0
 10 11  2  0
 11 12  1  0
 12 13  2  0
 13 14  1  0
  1 15  1  0
 15 16  2  0
 16 17  1  0
 17 18  1  0
 18 19  1  0
 19 20  1  0
 20 21  1  0
 21 22  1  0
 22 23  1  0
 23 24  2  0
 24 25  1  0
 25 26  3  0
 20 27  1  0
 13  4  1  0
 24 15  1  0
 12  7  1  0
 22 17  2  0
M  END
>  <AAScore>  (1) 
3816.14179762085

>  <RootName>  (1) 
./4ZLY/04_DeltaGEst/trajectory_03/rank_00/lead_0162

$$$$
