confid_17
     RDKit          3D

 28 31  0  0  0  0  0  0  0  0999 V2000
   24.5500   26.3900   36.2500 N   0  0  0  0  0  0  0  0  0  0  0  0
   25.6000   26.1300   35.4000 C   0  0  0  0  0  0  0  0  0  0  0  0
   25.4300   25.4300   34.4200 O   0  0  0  0  0  0  0  0  0  0  0  0
   26.9800   26.6300   35.7100 C   0  0  0  0  0  0  0  0  0  0  0  0
   27.3200   26.8200   36.9800 N   0  0  0  0  0  0  0  0  0  0  0  0
   28.4700   27.4000   37.3100 N   0  0  0  0  0  0  0  0  0  0  0  0
   29.4000   27.6300   36.3700 C   0  0  0  0  0  0  0  0  0  0  0  0
   30.6600   28.0500   36.8000 C   0  0  0  0  0  0  0  0  0  0  0  0
   31.5700   28.3600   35.7800 C   0  0  0  0  0  0  0  0  0  0  0  0
   31.3700   28.1000   34.4300 C   0  0  0  0  0  0  0  0  0  0  0  0
   30.1200   27.5900   34.0500 C   0  0  0  0  0  0  0  0  0  0  0  0
   29.1500   27.3400   35.0300 C   0  0  0  0  0  0  0  0  0  0  0  0
   27.8800   26.8900   34.6600 C   0  0  0  0  0  0  0  0  0  0  0  0
   27.4800   26.6100   33.3700 N   0  0  0  0  0  0  0  0  0  0  0  0
   23.1755   25.9394   35.9943 C   0  0  0  0  0  0  0  0  0  0  0  0
   22.4097   27.0248   35.2305 C   0  0  0  0  0  0  0  0  0  0  0  0
   20.9648   26.5761   34.9305 C   0  0  0  0  0  0  0  0  0  0  0  0
   20.3300   25.7907   36.0240 N   0  0  0  0  0  0  0  0  0  0  0  0
   20.9798   25.9869   37.3361 C   0  0  0  0  0  0  0  0  0  0  0  0
   22.4670   25.5820   37.3226 C   0  0  0  0  0  0  0  0  0  0  0  0
   20.1675   24.3592   35.6894 C   0  0  0  0  0  0  0  0  0  0  0  0
   19.0157   24.1758   34.7367 C   0  0  0  0  0  0  0  0  0  0  0  0
   17.7044   24.4403   35.1634 C   0  0  0  0  0  0  0  0  0  0  0  0
   16.6308   24.2843   34.2815 C   0  0  0  0  0  0  0  0  0  0  0  0
   16.8579   23.8644   32.9639 C   0  0  0  0  0  0  0  0  0  0  0  0
   15.7963   23.7058   32.0760 O   0  0  0  0  0  0  0  0  0  0  0  0
   18.1628   23.6019   32.5343 C   0  0  0  0  0  0  0  0  0  0  0  0
   19.2382   23.7569   33.4145 C   0  0  0  0  0  0  0  0  0  0  0  0
  1  2  1  0
  2  3  2  0
  2  4  1  0
  4  5  2  0
  5  6  1  0
  6  7  2  0
  7  8  1  0
  8  9  2  0
  9 10  1  0
 10 11  2  0
 11 12  1  0
 12 13  2  0
 13 14  1  0
  1 15  1  0
 15 16  1  0
 16 17  1  0
 17 18  1  0
 18 19  1  0
 19 20  1  0
 18 21  1  0
 21 22  1  0
 22 23  2  0
 23 24  1  0
 24 25  2  0
 25 26  1  0
 25 27  1  0
 27 28  2  0
 13  4  1  0
 20 15  1  0
 28 22  1  0
 12  7  1  0
M  END
>  <AAScore>  (1) 
1617.742802911583

>  <RootName>  (1) 
./4ZLY/04_DeltaGEst/trajectory_01/rank_00/lead_0259

$$$$
