confid_0
     RDKit          3D

 29 32  0  0  0  0  0  0  0  0999 V2000
   24.5500   26.3900   36.2500 N   0  0  0  0  0  0  0  0  0  0  0  0
   25.6000   26.1300   35.4000 C   0  0  0  0  0  0  0  0  0  0  0  0
   25.4300   25.4300   34.4200 O   0  0  0  0  0  0  0  0  0  0  0  0
   26.9800   26.6300   35.7100 C   0  0  0  0  0  0  0  0  0  0  0  0
   27.3200   26.8200   36.9800 N   0  0  0  0  0  0  0  0  0  0  0  0
   28.4700   27.4000   37.3100 N   0  0  0  0  0  0  0  0  0  0  0  0
   29.4000   27.6300   36.3700 C   0  0  0  0  0  0  0  0  0  0  0  0
   30.6600   28.0500   36.8000 C   0  0  0  0  0  0  0  0  0  0  0  0
   31.5700   28.3600   35.7800 C   0  0  0  0  0  0  0  0  0  0  0  0
   31.3700   28.1000   34.4300 C   0  0  0  0  0  0  0  0  0  0  0  0
   30.1200   27.5900   34.0500 C   0  0  0  0  0  0  0  0  0  0  0  0
   29.1500   27.3400   35.0300 C   0  0  0  0  0  0  0  0  0  0  0  0
   27.8800   26.8900   34.6600 C   0  0  0  0  0  0  0  0  0  0  0  0
   27.4800   26.6100   33.3700 N   0  0  0  0  0  0  0  0  0  0  0  0
   23.2967   25.6220   36.2231 C   0  0  1  0  0  0  0  0  0  0  0  0
   22.3216   26.0658   37.3188 C   0  0  0  0  0  0  0  0  0  0  0  0
   20.9314   25.8632   36.7291 C   0  0  0  0  0  0  0  0  0  0  0  0
   21.1238   25.7871   35.2912 N   0  0  0  0  0  0  0  0  0  0  0  0
   20.0671   25.6410   34.3263 C   0  0  0  0  0  0  0  0  0  0  0  0
   20.3452   25.6747   33.0973 O   0  0  0  0  0  0  0  0  0  0  0  0
   18.6315   25.4375   34.7407 C   0  0  0  0  0  0  0  0  0  0  0  0
   17.8184   26.6224   35.0722 N   0  0  0  0  0  0  0  0  0  0  0  0
   17.3067   27.5019   34.0458 C   0  0  0  0  0  0  0  0  0  0  0  0
   16.4959   28.4168   34.3565 O   0  0  0  0  0  0  0  0  0  0  0  0
   17.7596   27.4107   32.6188 C   0  0  0  0  0  0  0  0  0  0  0  0
   17.5269   26.9460   36.4710 C   0  0  0  0  0  0  0  0  0  0  0  0
   17.8662   24.3379   34.0059 C   0  0  0  0  0  0  0  0  0  0  0  0
   18.2724   24.1344   35.4552 C   0  0  0  0  0  0  0  0  0  0  0  0
   22.5274   25.8096   34.9164 C   0  0  0  0  0  0  0  0  0  0  0  0
  1  2  1  0
  2  3  2  0
  2  4  1  0
  4  5  2  0
  5  6  1  0
  6  7  2  0
  7  8  1  0
  8  9  2  0
  9 10  1  0
 10 11  2  0
 11 12  1  0
 12 13  2  0
 13 14  1  0
 15  1  1  6
 15 16  1  0
 16 17  1  0
 17 18  1  0
 18 19  1  0
 19 20  2  0
 19 21  1  0
 21 22  1  0
 22 23  1  0
 23 24  2  0
 23 25  1  0
 22 26  1  0
 21 27  1  0
 27 28  1  0
 18 29  1  0
 13  4  1  0
 29 15  1  0
 12  7  1  0
 28 21  1  0
M  END
>  <AAScore>  (1) 
9883.26174085397

>  <RootName>  (1) 
./4ZLY/04_DeltaGEst/trajectory_01/rank_00/lead_0303

$$$$
