confid_11
     RDKit          3D

 26 29  0  0  0  0  0  0  0  0999 V2000
   24.6900   26.1200   35.5300 N   0  0  0  0  0  0  0  0  0  0  0  0
   25.6600   25.6700   34.6600 C   0  0  0  0  0  0  0  0  0  0  0  0
   25.2400   25.0100   33.7200 O   0  0  0  0  0  0  0  0  0  0  0  0
   27.0300   26.2200   34.8800 C   0  0  0  0  0  0  0  0  0  0  0  0
   27.3500   26.7300   36.0700 N   0  0  0  0  0  0  0  0  0  0  0  0
   28.5700   27.1800   36.3300 N   0  0  0  0  0  0  0  0  0  0  0  0
   29.5300   27.1100   35.3900 C   0  0  0  0  0  0  0  0  0  0  0  0
   30.8300   27.5700   35.6500 C   0  0  0  0  0  0  0  0  0  0  0  0
   31.8500   27.5400   34.6900 C   0  0  0  0  0  0  0  0  0  0  0  0
   31.5100   27.1200   33.4000 C   0  0  0  0  0  0  0  0  0  0  0  0
   30.2200   26.6300   33.1100 C   0  0  0  0  0  0  0  0  0  0  0  0
   29.2400   26.6600   34.1000 C   0  0  0  0  0  0  0  0  0  0  0  0
   27.9300   26.2600   33.8100 C   0  0  0  0  0  0  0  0  0  0  0  0
   27.5200   25.7100   32.6100 N   0  0  0  0  0  0  0  0  0  0  0  0
   31.1494   28.0900   36.9562 N   0  0  0  0  0  0  0  0  0  0  0  0
   32.2194   27.4605   37.7375 C   0  0  0  0  0  0  0  0  0  0  0  0
   31.7437   27.2366   39.1714 C   0  0  0  0  0  0  0  0  0  0  0  0
   31.1652   28.4710   39.7150 N   0  0  0  0  0  0  0  0  0  0  0  0
   31.1841   28.7234   41.1549 C   0  0  0  0  0  0  0  0  0  0  0  0
   30.4539   29.3842   38.8607 C   0  0  0  0  0  0  0  0  0  0  0  0
   30.4342   29.2105   37.5293 C   0  0  0  0  0  0  0  0  0  0  0  0
   29.7097   30.1798   36.6701 C   0  0  0  0  0  0  0  0  0  0  0  0
   28.5497   30.8776   37.0032 C   0  0  0  0  0  0  0  0  0  0  0  0
   28.0899   31.7192   36.0389 N   0  0  0  0  0  0  0  0  0  0  0  0
   28.8696   31.7123   34.9359 C   0  0  0  0  0  0  0  0  0  0  0  0
   30.1627   30.6559   35.1192 S   0  0  0  0  0  0  0  0  0  0  0  0
  1  2  1  0
  2  3  2  0
  2  4  1  0
  4  5  2  0
  5  6  1  0
  6  7  2  0
  7  8  1  0
  8  9  2  0
  9 10  1  0
 10 11  2  0
 11 12  1  0
 12 13  2  0
 13 14  1  0
  8 15  1  0
 15 16  1  0
 16 17  1  0
 17 18  1  0
 18 19  1  0
 18 20  1  0
 20 21  2  0
 21 22  1  0
 22 23  2  0
 23 24  1  0
 24 25  2  0
 25 26  1  0
 13  4  1  0
 21 15  1  0
 26 22  1  0
 12  7  1  0
M  END
>  <AAScore>  (1) 
-3.411887498893592

>  <RootName>  (1) 
./4ZLY/04_DeltaGEst/trajectory_02/rank_01/lead_0237

$$$$
