confid_2
     RDKit          3D

 30 34  0  0  0  0  0  0  0  0999 V2000
   24.2000   26.2400   35.6900 N   0  0  0  0  0  0  0  0  0  0  0  0
   24.8500   26.2800   34.4800 C   0  0  0  0  0  0  0  0  0  0  0  0
   24.3100   25.7400   33.5400 O   0  0  0  0  0  0  0  0  0  0  0  0
   26.1800   26.9700   34.4700 C   0  0  0  0  0  0  0  0  0  0  0  0
   26.6500   27.6000   35.5500 N   0  0  0  0  0  0  0  0  0  0  0  0
   27.7900   28.2700   35.6200 N   0  0  0  0  0  0  0  0  0  0  0  0
   28.5400   28.3000   34.5100 C   0  0  0  0  0  0  0  0  0  0  0  0
   29.7700   28.9400   34.5600 C   0  0  0  0  0  0  0  0  0  0  0  0
   30.7000   28.8900   33.5000 C   0  0  0  0  0  0  0  0  0  0  0  0
   30.3700   28.1400   32.3700 C   0  0  0  0  0  0  0  0  0  0  0  0
   29.1200   27.5200   32.2800 C   0  0  0  0  0  0  0  0  0  0  0  0
   28.2100   27.6100   33.3300 C   0  0  0  0  0  0  0  0  0  0  0  0
   26.9700   26.9700   33.3100 C   0  0  0  0  0  0  0  0  0  0  0  0
   26.5300   26.2400   32.2200 N   0  0  0  0  0  0  0  0  0  0  0  0
   30.1431   29.6733   35.7388 N   0  0  0  0  0  0  0  0  0  0  0  0
   30.6643   28.9241   36.8892 C   0  0  0  0  0  0  0  0  0  0  0  0
   31.6843   29.7678   37.6430 C   0  0  0  0  0  0  0  0  0  0  0  0
   31.0947   31.0754   37.9352 N   0  0  0  0  0  0  0  0  0  0  0  0
   30.9467   31.5181   39.3247 C   0  0  0  0  0  0  0  0  0  0  0  0
   30.4705   31.8007   36.8532 C   0  0  0  0  0  0  0  0  0  0  0  0
   29.9571   31.1099   35.8086 C   0  0  0  0  0  0  0  0  0  0  0  0
   29.2743   31.8423   34.6666 C   0  0  0  0  0  0  0  0  0  0  0  0
   28.7135   33.1778   35.0772 C   0  0  0  0  0  0  0  0  0  0  0  0
   27.6835   33.7734   34.3328 C   0  0  0  0  0  0  0  0  0  0  0  0
   27.2051   35.0384   34.6826 C   0  0  0  0  0  0  0  0  0  0  0  0
   27.7596   35.7205   35.7678 C   0  0  0  0  0  0  0  0  0  0  0  0
   28.7981   35.1425   36.5030 C   0  0  0  0  0  0  0  0  0  0  0  0
   29.2889   33.8703   36.1550 C   0  0  0  0  0  0  0  0  0  0  0  0
   30.3531   33.2417   36.8946 N   0  0  0  0  0  0  0  0  0  0  0  0
   31.3721   34.0567   37.5638 C   0  0  0  0  0  0  0  0  0  0  0  0
  1  2  1  0
  2  3  2  0
  2  4  1  0
  4  5  2  0
  5  6  1  0
  6  7  2  0
  7  8  1  0
  8  9  2  0
  9 10  1  0
 10 11  2  0
 11 12  1  0
 12 13  2  0
 13 14  1  0
  8 15  1  0
 15 16  1  0
 16 17  1  0
 17 18  1  0
 18 19  1  0
 18 20  1  0
 20 21  2  0
 21 22  1  0
 22 23  1  0
 23 24  2  0
 24 25  1  0
 25 26  2  0
 26 27  1  0
 27 28  2  0
 28 29  1  0
 29 30  1  0
 13  4  1  0
 21 15  1  0
 28 23  1  0
 12  7  1  0
 29 20  1  0
M  END
>  <AAScore>  (1) 
58.74463867222005

>  <RootName>  (1) 
./4ZLY/04_DeltaGEst/trajectory_04/rank_01/lead_0203

$$$$
