confid_9
     RDKit          3D

 27 30  0  0  0  0  0  0  0  0999 V2000
   24.4800   26.1000   36.1300 N   0  0  0  0  0  0  0  0  0  0  0  0
   25.2500   26.2500   34.9900 C   0  0  0  0  0  0  0  0  0  0  0  0
   24.7400   25.7600   33.9900 O   0  0  0  0  0  0  0  0  0  0  0  0
   26.5900   26.8900   34.9600 C   0  0  0  0  0  0  0  0  0  0  0  0
   27.0600   27.2400   36.1600 N   0  0  0  0  0  0  0  0  0  0  0  0
   28.3000   27.7100   36.2400 N   0  0  0  0  0  0  0  0  0  0  0  0
   29.0500   27.9600   35.1500 C   0  0  0  0  0  0  0  0  0  0  0  0
   30.3400   28.4900   35.2600 C   0  0  0  0  0  0  0  0  0  0  0  0
   31.1100   28.8200   34.1400 C   0  0  0  0  0  0  0  0  0  0  0  0
   30.5200   28.6700   32.8800 C   0  0  0  0  0  0  0  0  0  0  0  0
   29.2900   28.0200   32.7700 C   0  0  0  0  0  0  0  0  0  0  0  0
   28.5200   27.7100   33.8900 C   0  0  0  0  0  0  0  0  0  0  0  0
   27.2700   27.0800   33.7600 C   0  0  0  0  0  0  0  0  0  0  0  0
   26.7500   26.8800   32.4900 N   0  0  0  0  0  0  0  0  0  0  0  0
   23.4855   25.0768   36.3384 C   0  0  0  0  0  0  0  0  0  0  0  0
   23.3908   24.0151   35.4972 N   0  0  0  0  0  0  0  0  0  0  0  0
   22.4782   23.0287   35.6792 C   0  0  0  0  0  0  0  0  0  0  0  0
   21.5881   23.0574   36.7697 C   0  0  0  0  0  0  0  0  0  0  0  0
   20.5730   21.9359   36.8661 C   0  0  0  0  0  0  0  0  0  0  0  0
   19.1504   22.3963   36.5263 C   0  0  0  0  0  0  0  0  0  0  0  0
   18.7479   23.6012   37.2804 N   0  0  0  0  0  0  0  0  0  0  0  0
   17.4716   24.1079   36.7478 C   0  0  0  0  0  0  0  0  0  0  0  0
   18.6242   23.3307   38.7300 C   0  0  0  0  0  0  0  0  0  0  0  0
   19.9767   23.4496   39.4513 C   0  0  0  0  0  0  0  0  0  0  0  0
   20.8545   24.3689   38.8056 O   0  0  0  0  0  0  0  0  0  0  0  0
   21.6715   24.1592   37.6754 C   0  0  0  0  0  0  0  0  0  0  0  0
   22.6270   25.1546   37.4379 C   0  0  0  0  0  0  0  0  0  0  0  0
  1  2  1  0
  2  3  2  0
  2  4  1  0
  4  5  2  0
  5  6  1  0
  6  7  2  0
  7  8  1  0
  8  9  2  0
  9 10  1  0
 10 11  2  0
 11 12  1  0
 12 13  2  0
 13 14  1  0
  1 15  1  0
 15 16  2  0
 16 17  1  0
 17 18  2  0
 18 19  1  0
 19 20  1  0
 20 21  1  0
 21 22  1  0
 21 23  1  0
 23 24  1  0
 24 25  1  0
 25 26  1  0
 26 27  2  0
 13  4  1  0
 27 15  1  0
 12  7  1  0
 26 18  1  0
M  END
>  <AAScore>  (1) 
329.3605625475139

>  <RootName>  (1) 
./4ZLY/04_DeltaGEst/trajectory_00/rank_01/lead_0489

$$$$
