confid_14
     RDKit          3D

 31 34  0  0  0  0  0  0  0  0999 V2000
   24.5500   26.3900   36.2500 N   0  0  0  0  0  0  0  0  0  0  0  0
   25.6000   26.1300   35.4000 C   0  0  0  0  0  0  0  0  0  0  0  0
   25.4300   25.4300   34.4200 O   0  0  0  0  0  0  0  0  0  0  0  0
   26.9800   26.6300   35.7100 C   0  0  0  0  0  0  0  0  0  0  0  0
   27.3200   26.8200   36.9800 N   0  0  0  0  0  0  0  0  0  0  0  0
   28.4700   27.4000   37.3100 N   0  0  0  0  0  0  0  0  0  0  0  0
   29.4000   27.6300   36.3700 C   0  0  0  0  0  0  0  0  0  0  0  0
   30.6600   28.0500   36.8000 C   0  0  0  0  0  0  0  0  0  0  0  0
   31.5700   28.3600   35.7800 C   0  0  0  0  0  0  0  0  0  0  0  0
   31.3700   28.1000   34.4300 C   0  0  0  0  0  0  0  0  0  0  0  0
   30.1200   27.5900   34.0500 C   0  0  0  0  0  0  0  0  0  0  0  0
   29.1500   27.3400   35.0300 C   0  0  0  0  0  0  0  0  0  0  0  0
   27.8800   26.8900   34.6600 C   0  0  0  0  0  0  0  0  0  0  0  0
   27.4800   26.6100   33.3700 N   0  0  0  0  0  0  0  0  0  0  0  0
   23.2396   25.7313   36.1287 C   0  0  0  0  0  0  0  0  0  0  0  0
   22.1595   26.5044   36.9212 C   0  0  0  0  0  0  0  0  0  0  0  0
   21.9782   25.9946   38.3654 C   0  0  0  0  0  0  0  0  0  0  0  0
   23.2272   25.4023   38.8814 N   0  0  0  0  0  0  0  0  0  0  0  0
   23.3207   25.2354   40.3540 C   0  0  0  0  0  0  0  0  0  0  0  0
   21.9967   24.9159   41.1153 C   0  0  0  0  0  0  0  0  0  0  0  0
   22.2663   24.9746   42.6431 C   0  0  0  0  0  0  0  0  0  0  0  0
   21.2853   24.0955   43.4339 C   0  0  0  0  0  0  0  0  0  0  0  0
   21.3401   22.6666   43.0333 N   0  0  0  0  0  0  0  0  0  0  0  0
   21.8073   22.4389   41.6475 C   0  0  0  0  0  0  0  0  0  0  0  0
   21.3520   23.5645   40.7149 C   0  0  0  0  0  0  0  0  0  0  0  0
   22.3050   21.7272   44.1483 S   0  0  0  0  0  6  0  0  0  0  0  0
   23.6366   22.3897   44.3706 O   0  0  0  0  0  0  0  0  0  0  0  0
   22.5283   20.3482   43.5910 O   0  0  0  0  0  0  0  0  0  0  0  0
   21.4535   21.5723   45.7047 C   0  0  0  0  0  0  0  0  0  0  0  0
   23.7319   24.2378   38.1153 C   0  0  0  0  0  0  0  0  0  0  0  0
   23.3275   24.2823   36.6305 C   0  0  0  0  0  0  0  0  0  0  0  0
  1  2  1  0
  2  3  2  0
  2  4  1  0
  4  5  2  0
  5  6  1  0
  6  7  2  0
  7  8  1  0
  8  9  2  0
  9 10  1  0
 10 11  2  0
 11 12  1  0
 12 13  2  0
 13 14  1  0
  1 15  1  0
 15 16  1  0
 16 17  1  0
 17 18  1  0
 18 19  1  0
 19 20  1  0
 20 21  1  0
 21 22  1  0
 22 23  1  0
 23 24  1  0
 24 25  1  0
 23 26  1  0
 26 27  2  0
 26 28  2  0
 26 29  1  0
 18 30  1  0
 30 31  1  0
 13  4  1  0
 31 15  1  0
 12  7  1  0
 25 20  1  0
M  END
>  <AAScore>  (1) 
1519.414279178506

>  <RootName>  (1) 
./4ZLY/04_DeltaGEst/trajectory_01/rank_00/lead_0493

$$$$
