confid_15
     RDKit          3D

 27 30  0  0  0  0  0  0  0  0999 V2000
   24.5500   26.3900   36.2500 N   0  0  0  0  0  0  0  0  0  0  0  0
   25.6000   26.1300   35.4000 C   0  0  0  0  0  0  0  0  0  0  0  0
   25.4300   25.4300   34.4200 O   0  0  0  0  0  0  0  0  0  0  0  0
   26.9800   26.6300   35.7100 C   0  0  0  0  0  0  0  0  0  0  0  0
   27.3200   26.8200   36.9800 N   0  0  0  0  0  0  0  0  0  0  0  0
   28.4700   27.4000   37.3100 N   0  0  0  0  0  0  0  0  0  0  0  0
   29.4000   27.6300   36.3700 C   0  0  0  0  0  0  0  0  0  0  0  0
   30.6600   28.0500   36.8000 C   0  0  0  0  0  0  0  0  0  0  0  0
   31.5700   28.3600   35.7800 C   0  0  0  0  0  0  0  0  0  0  0  0
   31.3700   28.1000   34.4300 C   0  0  0  0  0  0  0  0  0  0  0  0
   30.1200   27.5900   34.0500 C   0  0  0  0  0  0  0  0  0  0  0  0
   29.1500   27.3400   35.0300 C   0  0  0  0  0  0  0  0  0  0  0  0
   27.8800   26.8900   34.6600 C   0  0  0  0  0  0  0  0  0  0  0  0
   27.4800   26.6100   33.3700 N   0  0  0  0  0  0  0  0  0  0  0  0
   23.1741   25.9463   35.9900 C   0  0  0  0  0  0  0  0  0  0  0  0
   22.4150   27.0371   35.2272 C   0  0  0  0  0  0  0  0  0  0  0  0
   20.9687   26.5959   34.9227 C   0  0  0  0  0  0  0  0  0  0  0  0
   20.3275   25.8106   36.0129 N   0  0  0  0  0  0  0  0  0  0  0  0
   20.1614   24.3811   35.6744 C   0  0  0  0  0  0  0  0  0  0  0  0
   19.0276   24.2084   34.7103 C   0  0  0  0  0  0  0  0  0  0  0  0
   19.1207   23.7866   33.3964 C   0  0  0  0  0  0  0  0  0  0  0  0
   17.8313   23.7872   32.9011 C   0  0  0  0  0  0  0  0  0  0  0  0
   16.9762   24.2065   33.8548 N   0  0  0  0  0  0  0  0  0  0  0  0
   15.5247   24.2708   33.7380 C   0  0  0  0  0  0  0  0  0  0  0  0
   17.6934   24.4538   34.9669 C   0  0  0  0  0  0  0  0  0  0  0  0
   20.9755   26.0002   37.3269 C   0  0  0  0  0  0  0  0  0  0  0  0
   22.4609   25.5886   37.3157 C   0  0  0  0  0  0  0  0  0  0  0  0
  1  2  1  0
  2  3  2  0
  2  4  1  0
  4  5  2  0
  5  6  1  0
  6  7  2  0
  7  8  1  0
  8  9  2  0
  9 10  1  0
 10 11  2  0
 11 12  1  0
 12 13  2  0
 13 14  1  0
  1 15  1  0
 15 16  1  0
 16 17  1  0
 17 18  1  0
 18 19  1  0
 19 20  1  0
 20 21  1  0
 21 22  2  0
 22 23  1  0
 23 24  1  0
 23 25  1  0
 18 26  1  0
 26 27  1  0
 13  4  1  0
 27 15  1  0
 12  7  1  0
 25 20  2  0
M  END
>  <AAScore>  (1) 
1535.3107007478382

>  <RootName>  (1) 
./4ZLY/04_DeltaGEst/trajectory_01/rank_00/lead_0358

$$$$
