confid_12
     RDKit          3D

 32 35  0  0  0  0  0  0  0  0999 V2000
   24.5500   26.3900   36.2500 N   0  0  0  0  0  0  0  0  0  0  0  0
   25.6000   26.1300   35.4000 C   0  0  0  0  0  0  0  0  0  0  0  0
   25.4300   25.4300   34.4200 O   0  0  0  0  0  0  0  0  0  0  0  0
   26.9800   26.6300   35.7100 C   0  0  0  0  0  0  0  0  0  0  0  0
   27.3200   26.8200   36.9800 N   0  0  0  0  0  0  0  0  0  0  0  0
   28.4700   27.4000   37.3100 N   0  0  0  0  0  0  0  0  0  0  0  0
   29.4000   27.6300   36.3700 C   0  0  0  0  0  0  0  0  0  0  0  0
   30.6600   28.0500   36.8000 C   0  0  0  0  0  0  0  0  0  0  0  0
   31.5700   28.3600   35.7800 C   0  0  0  0  0  0  0  0  0  0  0  0
   31.3700   28.1000   34.4300 C   0  0  0  0  0  0  0  0  0  0  0  0
   30.1200   27.5900   34.0500 C   0  0  0  0  0  0  0  0  0  0  0  0
   29.1500   27.3400   35.0300 C   0  0  0  0  0  0  0  0  0  0  0  0
   27.8800   26.8900   34.6600 C   0  0  0  0  0  0  0  0  0  0  0  0
   27.4800   26.6100   33.3700 N   0  0  0  0  0  0  0  0  0  0  0  0
   23.1694   25.9207   36.0582 C   0  0  0  0  0  0  0  0  0  0  0  0
   23.0830   24.3699   36.0676 C   0  0  0  0  0  0  0  0  0  0  0  0
   22.4008   23.7832   34.8228 C   0  0  0  0  0  0  0  0  0  0  0  0
   21.1654   24.5177   34.5104 N   0  0  0  0  0  0  0  0  0  0  0  0
   19.9786   23.8294   34.0723 C   0  0  0  0  0  0  0  0  0  0  0  0
   18.8450   24.2850   34.3871 O   0  0  0  0  0  0  0  0  0  0  0  0
   20.0465   22.6274   33.1714 C   0  0  0  0  0  0  0  0  0  0  0  0
   19.6527   23.0165   31.7729 C   0  0  0  0  0  0  0  0  0  0  0  0
   20.5931   23.6128   30.9229 C   0  0  0  0  0  0  0  0  0  0  0  0
   20.2267   24.0020   29.6356 C   0  0  0  0  0  0  0  0  0  0  0  0
   18.9180   23.8101   29.1879 C   0  0  0  0  0  0  0  0  0  0  0  0
   17.9445   23.2232   30.0250 C   0  0  0  0  0  0  0  0  0  0  0  0
   16.5802   23.0256   29.5613 N   0  0  0  0  0  0  0  0  0  0  0  0
   15.6564   22.1549   30.3010 C   0  0  0  0  0  0  0  0  0  0  0  0
   16.1030   23.6803   28.3361 C   0  0  0  0  0  0  0  0  0  0  0  0
   18.3327   22.8365   31.3278 C   0  0  0  0  0  0  0  0  0  0  0  0
   21.1384   25.9867   34.5660 C   0  0  0  0  0  0  0  0  0  0  0  0
   22.5348   26.5653   34.8120 C   0  0  0  0  0  0  0  0  0  0  0  0
  1  2  1  0
  2  3  2  0
  2  4  1  0
  4  5  2  0
  5  6  1  0
  6  7  2  0
  7  8  1  0
  8  9  2  0
  9 10  1  0
 10 11  2  0
 11 12  1  0
 12 13  2  0
 13 14  1  0
  1 15  1  0
 15 16  1  0
 16 17  1  0
 17 18  1  0
 18 19  1  0
 19 20  2  0
 19 21  1  0
 21 22  1  0
 22 23  2  0
 23 24  1  0
 24 25  2  0
 25 26  1  0
 26 27  1  0
 27 28  1  0
 27 29  1  0
 26 30  2  0
 18 31  1  0
 31 32  1  0
 13  4  1  0
 32 15  1  0
 12  7  1  0
 30 22  1  0
M  END
>  <AAScore>  (1) 
730.712732423709

>  <RootName>  (1) 
./4ZLY/04_DeltaGEst/trajectory_01/rank_00/lead_0199

$$$$
