confid_16
     RDKit          3D

 28 31  0  0  0  0  0  0  0  0999 V2000
   24.2000   26.2400   35.6900 N   0  0  0  0  0  0  0  0  0  0  0  0
   24.8500   26.2800   34.4800 C   0  0  0  0  0  0  0  0  0  0  0  0
   24.3100   25.7400   33.5400 O   0  0  0  0  0  0  0  0  0  0  0  0
   26.1800   26.9700   34.4700 C   0  0  0  0  0  0  0  0  0  0  0  0
   26.6500   27.6000   35.5500 N   0  0  0  0  0  0  0  0  0  0  0  0
   27.7900   28.2700   35.6200 N   0  0  0  0  0  0  0  0  0  0  0  0
   28.5400   28.3000   34.5100 C   0  0  0  0  0  0  0  0  0  0  0  0
   29.7700   28.9400   34.5600 C   0  0  0  0  0  0  0  0  0  0  0  0
   30.7000   28.8900   33.5000 C   0  0  0  0  0  0  0  0  0  0  0  0
   30.3700   28.1400   32.3700 C   0  0  0  0  0  0  0  0  0  0  0  0
   29.1200   27.5200   32.2800 C   0  0  0  0  0  0  0  0  0  0  0  0
   28.2100   27.6100   33.3300 C   0  0  0  0  0  0  0  0  0  0  0  0
   26.9700   26.9700   33.3100 C   0  0  0  0  0  0  0  0  0  0  0  0
   26.5300   26.2400   32.2200 N   0  0  0  0  0  0  0  0  0  0  0  0
   30.1315   29.6877   35.7320 N   0  0  0  0  0  0  0  0  0  0  0  0
   29.5754   31.0320   35.9170 C   0  0  0  0  0  0  0  0  0  0  0  0
   30.0739   31.6674   37.2271 C   0  0  0  0  0  0  0  0  0  0  0  0
   31.5442   31.5642   37.4075 N   0  0  0  0  0  0  0  0  0  0  0  0
   32.2818   32.8314   37.2086 C   0  0  0  0  0  0  0  0  0  0  0  0
   32.2241   33.3462   35.7881 C   0  0  0  0  0  0  0  0  0  0  0  0
   31.2198   34.1357   35.2548 C   0  0  0  0  0  0  0  0  0  0  0  0
   31.4885   34.4097   33.9981 O   0  0  0  0  0  0  0  0  0  0  0  0
   32.6301   33.8474   33.6758 C   0  0  0  0  0  0  0  0  0  0  0  0
   33.2560   33.9521   32.3232 C   0  0  0  0  0  0  0  0  0  0  0  0
   33.1484   33.1711   34.7662 C   0  0  0  0  0  0  0  0  0  0  0  0
   34.4496   32.4245   34.7998 C   0  0  0  0  0  0  0  0  0  0  0  0
   32.2023   30.3903   36.7869 C   0  0  0  0  0  0  0  0  0  0  0  0
   31.2280   29.2312   36.5878 C   0  0  0  0  0  0  0  0  0  0  0  0
  1  2  1  0
  2  3  2  0
  2  4  1  0
  4  5  2  0
  5  6  1  0
  6  7  2  0
  7  8  1  0
  8  9  2  0
  9 10  1  0
 10 11  2  0
 11 12  1  0
 12 13  2  0
 13 14  1  0
  8 15  1  0
 15 16  1  0
 16 17  1  0
 17 18  1  0
 18 19  1  0
 19 20  1  0
 20 21  2  0
 21 22  1  0
 22 23  1  0
 23 24  1  0
 23 25  2  0
 25 26  1  0
 18 27  1  0
 27 28  1  0
 13  4  1  0
 28 15  1  0
 12  7  1  0
 25 20  1  0
M  END
>  <AAScore>  (1) 
-8.059056819961825

>  <RootName>  (1) 
./4ZLY/04_DeltaGEst/trajectory_04/rank_01/lead_0180

$$$$
