confid_1
     RDKit          3D

 28 31  0  0  0  0  0  0  0  0999 V2000
   24.6900   26.1200   35.5300 N   0  0  0  0  0  0  0  0  0  0  0  0
   25.6600   25.6700   34.6600 C   0  0  0  0  0  0  0  0  0  0  0  0
   25.2400   25.0100   33.7200 O   0  0  0  0  0  0  0  0  0  0  0  0
   27.0300   26.2200   34.8800 C   0  0  0  0  0  0  0  0  0  0  0  0
   27.3500   26.7300   36.0700 N   0  0  0  0  0  0  0  0  0  0  0  0
   28.5700   27.1800   36.3300 N   0  0  0  0  0  0  0  0  0  0  0  0
   29.5300   27.1100   35.3900 C   0  0  0  0  0  0  0  0  0  0  0  0
   30.8300   27.5700   35.6500 C   0  0  0  0  0  0  0  0  0  0  0  0
   31.8500   27.5400   34.6900 C   0  0  0  0  0  0  0  0  0  0  0  0
   31.5100   27.1200   33.4000 C   0  0  0  0  0  0  0  0  0  0  0  0
   30.2200   26.6300   33.1100 C   0  0  0  0  0  0  0  0  0  0  0  0
   29.2400   26.6600   34.1000 C   0  0  0  0  0  0  0  0  0  0  0  0
   27.9300   26.2600   33.8100 C   0  0  0  0  0  0  0  0  0  0  0  0
   27.5200   25.7100   32.6100 N   0  0  0  0  0  0  0  0  0  0  0  0
   23.4038   25.5013   35.7257 C   0  0  0  0  0  0  0  0  0  0  0  0
   22.4974   26.0938   36.5473 N   0  0  0  0  0  0  0  0  0  0  0  0
   21.2724   25.5472   36.7545 C   0  0  0  0  0  0  0  0  0  0  0  0
   20.9193   24.3490   36.1207 C   0  0  0  0  0  0  0  0  0  0  0  0
   19.5391   23.7528   36.3098 C   0  0  0  0  0  0  0  0  0  0  0  0
   18.7682   23.4864   34.9879 C   0  0  0  0  0  0  0  0  0  0  0  0
   19.5536   23.8361   33.7790 N   0  0  0  0  0  0  0  0  0  0  0  0
   18.6542   24.0978   32.6422 C   0  0  0  0  0  0  0  0  0  0  0  0
   20.5235   22.7748   33.4100 C   0  0  0  0  0  0  0  0  0  0  0  0
   21.5318   22.4566   34.5450 C   0  0  2  0  0  0  0  0  0  0  0  0
   21.8826   23.7230   35.3043 C   0  0  0  0  0  0  0  0  0  0  0  0
   23.0881   24.3253   35.1172 N   0  0  0  0  0  0  0  0  0  0  0  0
   22.7927   21.7307   34.0165 C   0  0  0  0  0  0  0  0  0  0  0  0
   22.4771   20.3523   33.4345 C   0  0  0  0  0  0  0  0  0  0  0  0
  1  2  1  0
  2  3  2  0
  2  4  1  0
  4  5  2  0
  5  6  1  0
  6  7  2  0
  7  8  1  0
  8  9  2  0
  9 10  1  0
 10 11  2  0
 11 12  1  0
 12 13  2  0
 13 14  1  0
  1 15  1  0
 15 16  2  0
 16 17  1  0
 17 18  2  0
 18 19  1  0
 19 20  1  0
 20 21  1  0
 21 22  1  0
 21 23  1  0
 23 24  1  0
 24 25  1  0
 25 26  2  0
 24 27  1  6
 27 28  1  0
 13  4  1  0
 26 15  1  0
 12  7  1  0
 25 18  1  0
M  END
>  <AAScore>  (1) 
32539.21322607629

>  <RootName>  (1) 
./4ZLY/04_DeltaGEst/trajectory_02/rank_00/lead_0133

$$$$
