confid_5
     RDKit          3D

 30 33  0  0  0  0  0  0  0  0999 V2000
   24.2000   26.2400   35.6900 N   0  0  0  0  0  0  0  0  0  0  0  0
   24.8500   26.2800   34.4800 C   0  0  0  0  0  0  0  0  0  0  0  0
   24.3100   25.7400   33.5400 O   0  0  0  0  0  0  0  0  0  0  0  0
   26.1800   26.9700   34.4700 C   0  0  0  0  0  0  0  0  0  0  0  0
   26.6500   27.6000   35.5500 N   0  0  0  0  0  0  0  0  0  0  0  0
   27.7900   28.2700   35.6200 N   0  0  0  0  0  0  0  0  0  0  0  0
   28.5400   28.3000   34.5100 C   0  0  0  0  0  0  0  0  0  0  0  0
   29.7700   28.9400   34.5600 C   0  0  0  0  0  0  0  0  0  0  0  0
   30.7000   28.8900   33.5000 C   0  0  0  0  0  0  0  0  0  0  0  0
   30.3700   28.1400   32.3700 C   0  0  0  0  0  0  0  0  0  0  0  0
   29.1200   27.5200   32.2800 C   0  0  0  0  0  0  0  0  0  0  0  0
   28.2100   27.6100   33.3300 C   0  0  0  0  0  0  0  0  0  0  0  0
   26.9700   26.9700   33.3100 C   0  0  0  0  0  0  0  0  0  0  0  0
   26.5300   26.2400   32.2200 N   0  0  0  0  0  0  0  0  0  0  0  0
   30.1298   29.6882   35.7312 N   0  0  0  0  0  0  0  0  0  0  0  0
   30.9141   29.0155   36.7710 C   0  0  0  0  0  0  0  0  0  0  0  0
   29.7181   31.0996   35.8317 C   0  0  2  0  0  0  0  0  0  0  0  0
   30.9345   32.0264   35.9717 C   0  0  0  0  0  0  0  0  0  0  0  0
   30.5171   33.5053   35.8622 C   0  0  0  0  0  0  0  0  0  0  0  0
   29.1183   33.8224   36.4715 C   0  0  1  0  0  0  0  0  0  0  0  0
   28.0711   34.0278   35.3834 C   0  0  0  0  0  0  0  0  0  0  0  0
   27.1107   33.2129   35.2952 O   0  0  0  0  0  0  0  0  0  0  0  0
   28.1571   35.1088   34.4216 N   0  0  0  0  0  0  0  0  0  0  0  0
   29.0324   36.2803   34.6087 C   0  0  0  0  0  0  0  0  0  0  0  0
   29.8104   36.5921   33.3198 C   0  0  0  0  0  0  0  0  0  0  0  0
   28.9710   36.4368   32.0335 C   0  0  0  0  0  0  0  0  0  0  0  0
   27.4762   36.2660   32.3165 C   0  0  0  0  0  0  0  0  0  0  0  0
   27.2446   35.0818   33.2642 C   0  0  0  0  0  0  0  0  0  0  0  0
   28.6993   32.7621   37.5211 C   0  0  0  0  0  0  0  0  0  0  0  0
   28.7141   31.3115   36.9870 C   0  0  0  0  0  0  0  0  0  0  0  0
  1  2  1  0
  2  3  2  0
  2  4  1  0
  4  5  2  0
  5  6  1  0
  6  7  2  0
  7  8  1  0
  8  9  2  0
  9 10  1  0
 10 11  2  0
 11 12  1  0
 12 13  2  0
 13 14  1  0
  8 15  1  0
 15 16  1  0
 17 15  1  1
 17 18  1  0
 18 19  1  0
 19 20  1  0
 20 21  1  6
 21 22  2  0
 21 23  1  0
 23 24  1  0
 24 25  1  0
 25 26  1  0
 26 27  1  0
 27 28  1  0
 20 29  1  0
 29 30  1  0
 13  4  1  0
 30 17  1  0
 12  7  1  0
 28 23  1  0
M  END
>  <AAScore>  (1) 
152.77847882784295

>  <RootName>  (1) 
./4ZLY/04_DeltaGEst/trajectory_04/rank_01/lead_0491

$$$$
