confid_18
     RDKit          3D

 30 33  0  0  0  0  0  0  0  0999 V2000
   25.3300   26.2600   34.7600 N   0  0  0  0  0  0  0  0  0  0  0  0
   26.1200   25.9200   33.6900 C   0  0  0  0  0  0  0  0  0  0  0  0
   25.6300   25.1100   32.9400 O   0  0  0  0  0  0  0  0  0  0  0  0
   27.5200   26.3800   33.4600 C   0  0  0  0  0  0  0  0  0  0  0  0
   28.1600   26.6300   34.6100 N   0  0  0  0  0  0  0  0  0  0  0  0
   29.4800   26.8500   34.5700 N   0  0  0  0  0  0  0  0  0  0  0  0
   30.1900   26.7800   33.4400 C   0  0  0  0  0  0  0  0  0  0  0  0
   31.5600   27.0500   33.5000 C   0  0  0  0  0  0  0  0  0  0  0  0
   32.2700   27.2400   32.3100 C   0  0  0  0  0  0  0  0  0  0  0  0
   31.6100   27.2500   31.0800 C   0  0  0  0  0  0  0  0  0  0  0  0
   30.2700   26.8700   31.0600 C   0  0  0  0  0  0  0  0  0  0  0  0
   29.5100   26.6900   32.2300 C   0  0  0  0  0  0  0  0  0  0  0  0
   28.1400   26.4100   32.2000 C   0  0  0  0  0  0  0  0  0  0  0  0
   27.4300   26.1300   31.0500 N   0  0  0  0  0  0  0  0  0  0  0  0
   27.5695   24.8093   30.4188 C   0  0  0  0  0  0  0  0  0  0  0  0
   26.5805   24.6381   29.2619 C   0  0  0  0  0  0  0  0  0  0  0  0
   26.6083   25.8216   28.3898 N   0  0  0  0  0  0  0  0  0  0  0  0
   26.6764   25.6845   26.9579 C   0  0  0  0  0  0  0  0  0  0  0  0
   27.4016   26.4731   26.2940 O   0  0  0  0  0  0  0  0  0  0  0  0
   25.9107   24.6551   26.2321 C   0  0  0  0  0  0  0  0  0  0  0  0
   26.1801   24.2916   24.9986 O   0  0  0  0  0  0  0  0  0  0  0  0
   25.3103   23.3775   24.6348 C   0  0  0  0  0  0  0  0  0  0  0  0
   25.2898   22.7218   23.2919 C   0  0  0  0  0  0  0  0  0  0  0  0
   26.3673   23.1512   22.5390 F   0  0  0  0  0  0  0  0  0  0  0  0
   25.3614   21.3495   23.4431 F   0  0  0  0  0  0  0  0  0  0  0  0
   24.1184   23.0492   22.6350 F   0  0  0  0  0  0  0  0  0  0  0  0
   24.4233   23.1306   25.6641 C   0  0  0  0  0  0  0  0  0  0  0  0
   24.8085   23.9584   26.6969 C   0  0  0  0  0  0  0  0  0  0  0  0
   26.6411   27.1721   28.9719 C   0  0  0  0  0  0  0  0  0  0  0  0
   26.5131   27.1335   30.4977 C   0  0  0  0  0  0  0  0  0  0  0  0
  1  2  1  0
  2  3  2  0
  2  4  1  0
  4  5  2  0
  5  6  1  0
  6  7  2  0
  7  8  1  0
  8  9  2  0
  9 10  1  0
 10 11  2  0
 11 12  1  0
 12 13  2  0
 13 14  1  0
 14 15  1  0
 15 16  1  0
 16 17  1  0
 17 18  1  0
 18 19  2  0
 18 20  1  0
 20 21  1  0
 21 22  1  0
 22 23  1  0
 23 24  1  0
 23 25  1  0
 23 26  1  0
 22 27  2  0
 27 28  1  0
 17 29  1  0
 29 30  1  0
 13  4  1  0
 30 14  1  0
 12  7  1  0
 28 20  2  0
M  END
>  <AAScore>  (1) 
14.836215689428558

>  <RootName>  (1) 
./4ZLY/04_DeltaGEst/trajectory_03/rank_01/lead_0288

$$$$
