confid_14
     RDKit          3D

 33 37  0  0  0  0  0  0  0  0999 V2000
   24.5700   26.8800   35.5900 N   0  0  0  0  0  0  0  0  0  0  0  0
   25.5000   26.4000   34.6900 C   0  0  0  0  0  0  0  0  0  0  0  0
   25.1700   25.5200   33.9100 O   0  0  0  0  0  0  0  0  0  0  0  0
   26.8400   27.0200   34.7400 C   0  0  0  0  0  0  0  0  0  0  0  0
   27.3800   27.2800   35.9400 N   0  0  0  0  0  0  0  0  0  0  0  0
   28.6200   27.7400   36.0300 N   0  0  0  0  0  0  0  0  0  0  0  0
   29.3800   28.0000   34.9600 C   0  0  0  0  0  0  0  0  0  0  0  0
   30.6700   28.5000   35.1300 C   0  0  0  0  0  0  0  0  0  0  0  0
   31.5400   28.6100   34.0300 C   0  0  0  0  0  0  0  0  0  0  0  0
   31.0900   28.2200   32.7700 C   0  0  0  0  0  0  0  0  0  0  0  0
   29.8000   27.7000   32.6000 C   0  0  0  0  0  0  0  0  0  0  0  0
   28.9600   27.5500   33.7100 C   0  0  0  0  0  0  0  0  0  0  0  0
   27.6600   27.0300   33.5900 C   0  0  0  0  0  0  0  0  0  0  0  0
   27.1600   26.7400   32.3400 N   0  0  0  0  0  0  0  0  0  0  0  0
   23.3486   26.1970   35.9162 C   0  0  0  0  0  0  0  0  0  0  0  0
   22.2640   26.8924   36.0897 N   0  0  0  0  0  0  0  0  0  0  0  0
   21.0042   26.3091   36.4551 C   0  0  0  0  0  0  0  0  0  0  0  0
   20.8590   24.9800   36.5716 C   0  0  0  0  0  0  0  0  0  0  0  0
   21.9771   24.0316   36.1922 C   0  0  2  0  0  0  0  0  0  0  0  0
   21.9831   22.8574   37.1811 C   0  0  0  0  0  0  0  0  0  0  0  0
   20.6420   22.2528   37.2473 N   0  0  0  0  0  0  0  0  0  0  0  0
   20.4816   20.7971   37.1999 C   0  0  0  0  0  0  0  0  0  0  0  0
   19.5886   20.3958   36.0218 C   0  0  0  0  0  0  0  0  0  0  0  0
   18.1529   20.3463   36.4039 N   0  0  0  0  0  0  0  0  0  0  0  0
   17.4439   19.3978   35.5142 C   0  0  0  0  0  0  0  0  0  0  0  0
   17.4631   21.6789   36.5660 C   0  0  0  0  0  0  0  0  0  0  0  0
   15.9952   21.4581   37.0278 C   0  0  0  0  0  0  0  0  0  0  0  0
   17.4118   22.5029   35.2492 C   0  0  0  0  0  0  0  0  0  0  0  0
   18.1369   22.5133   37.7031 C   0  0  0  0  0  0  0  0  0  0  0  0
   19.4776   23.1019   37.3288 C   0  0  0  0  0  0  0  0  0  0  0  0
   19.5748   24.4074   37.0203 C   0  0  0  0  0  0  0  0  0  0  0  0
   23.3127   24.7328   36.1290 C   0  0  0  0  0  0  0  0  0  0  0  0
   24.3841   24.0721   36.2074 O   0  0  0  0  0  0  0  0  0  0  0  0
  1  2  1  0
  2  3  2  0
  2  4  1  0
  4  5  2  0
  5  6  1  0
  6  7  2  0
  7  8  1  0
  8  9  2  0
  9 10  1  0
 10 11  2  0
 11 12  1  0
 12 13  2  0
 13 14  1  0
  1 15  1  0
 15 16  2  0
 16 17  1  0
 17 18  2  0
 18 19  1  0
 19 20  1  1
 20 21  1  0
 21 22  1  0
 22 23  1  0
 23 24  1  0
 24 25  1  0
 24 26  1  0
 26 27  1  0
 26 28  1  0
 26 29  1  0
 29 30  1  0
 30 31  2  0
 19 32  1  0
 32 33  2  0
 13  4  1  0
 32 15  1  0
 12  7  1  0
 31 18  1  0
 30 21  1  0
M  END
>  <AAScore>  (1) 
5498.422932568086

>  <RootName>  (1) 
./4ZLY/04_DeltaGEst/trajectory_05/rank_00/lead_0208

$$$$
