confid_8
     RDKit          3D

 27 30  0  0  0  0  0  0  0  0999 V2000
   24.6900   26.1200   35.5300 N   0  0  0  0  0  0  0  0  0  0  0  0
   25.6600   25.6700   34.6600 C   0  0  0  0  0  0  0  0  0  0  0  0
   25.2400   25.0100   33.7200 O   0  0  0  0  0  0  0  0  0  0  0  0
   27.0300   26.2200   34.8800 C   0  0  0  0  0  0  0  0  0  0  0  0
   27.3500   26.7300   36.0700 N   0  0  0  0  0  0  0  0  0  0  0  0
   28.5700   27.1800   36.3300 N   0  0  0  0  0  0  0  0  0  0  0  0
   29.5300   27.1100   35.3900 C   0  0  0  0  0  0  0  0  0  0  0  0
   30.8300   27.5700   35.6500 C   0  0  0  0  0  0  0  0  0  0  0  0
   31.8500   27.5400   34.6900 C   0  0  0  0  0  0  0  0  0  0  0  0
   31.5100   27.1200   33.4000 C   0  0  0  0  0  0  0  0  0  0  0  0
   30.2200   26.6300   33.1100 C   0  0  0  0  0  0  0  0  0  0  0  0
   29.2400   26.6600   34.1000 C   0  0  0  0  0  0  0  0  0  0  0  0
   27.9300   26.2600   33.8100 C   0  0  0  0  0  0  0  0  0  0  0  0
   27.5200   25.7100   32.6100 N   0  0  0  0  0  0  0  0  0  0  0  0
   31.1638   28.0675   36.9540 N   0  0  0  0  0  0  0  0  0  0  0  0
   32.3631   28.6129   37.6203 C   0  0  0  0  0  0  0  0  0  0  0  0
   31.7173   28.8406   38.9537 C   0  0  0  0  0  0  0  0  0  0  0  0
   32.2274   27.9575   40.0707 C   0  0  0  0  0  0  0  0  0  0  0  0
   32.2358   28.3102   41.3771 N   0  0  0  0  0  0  0  0  0  0  0  0
   31.8225   29.5855   41.9672 C   0  0  0  0  0  0  0  0  0  0  0  0
   30.5147   29.8626   41.6123 F   0  0  0  0  0  0  0  0  0  0  0  0
   32.6469   30.5975   41.5107 F   0  0  0  0  0  0  0  0  0  0  0  0
   31.9049   29.5332   43.3482 F   0  0  0  0  0  0  0  0  0  0  0  0
   32.7128   27.2373   42.0333 C   0  0  0  0  0  0  0  0  0  0  0  0
   32.9704   26.2490   41.1115 C   0  0  0  0  0  0  0  0  0  0  0  0
   32.6608   26.6910   39.8768 N   0  0  0  0  0  0  0  0  0  0  0  0
   30.5105   28.2888   38.2606 C   0  0  0  0  0  0  0  0  0  0  0  0
  1  2  1  0
  2  3  2  0
  2  4  1  0
  4  5  2  0
  5  6  1  0
  6  7  2  0
  7  8  1  0
  8  9  2  0
  9 10  1  0
 10 11  2  0
 11 12  1  0
 12 13  2  0
 13 14  1  0
  8 15  1  0
 15 16  1  0
 16 17  1  0
 17 18  1  0
 18 19  1  0
 19 20  1  0
 20 21  1  0
 20 22  1  0
 20 23  1  0
 19 24  1  0
 24 25  2  0
 25 26  1  0
 17 27  1  0
 13  4  1  0
 27 15  1  0
 12  7  1  0
 26 18  2  0
M  END
>  <AAScore>  (1) 
13.784275474935104

>  <RootName>  (1) 
./4ZLY/04_DeltaGEst/trajectory_02/rank_01/lead_0168

$$$$
