confid_2
     RDKit          3D

 29 32  0  0  0  0  0  0  0  0999 V2000
   24.4800   26.1000   36.1300 N   0  0  0  0  0  0  0  0  0  0  0  0
   25.2500   26.2500   34.9900 C   0  0  0  0  0  0  0  0  0  0  0  0
   24.7400   25.7600   33.9900 O   0  0  0  0  0  0  0  0  0  0  0  0
   26.5900   26.8900   34.9600 C   0  0  0  0  0  0  0  0  0  0  0  0
   27.0600   27.2400   36.1600 N   0  0  0  0  0  0  0  0  0  0  0  0
   28.3000   27.7100   36.2400 N   0  0  0  0  0  0  0  0  0  0  0  0
   29.0500   27.9600   35.1500 C   0  0  0  0  0  0  0  0  0  0  0  0
   30.3400   28.4900   35.2600 C   0  0  0  0  0  0  0  0  0  0  0  0
   31.1100   28.8200   34.1400 C   0  0  0  0  0  0  0  0  0  0  0  0
   30.5200   28.6700   32.8800 C   0  0  0  0  0  0  0  0  0  0  0  0
   29.2900   28.0200   32.7700 C   0  0  0  0  0  0  0  0  0  0  0  0
   28.5200   27.7100   33.8900 C   0  0  0  0  0  0  0  0  0  0  0  0
   27.2700   27.0800   33.7600 C   0  0  0  0  0  0  0  0  0  0  0  0
   26.7500   26.8800   32.4900 N   0  0  0  0  0  0  0  0  0  0  0  0
   23.0567   25.8865   36.1600 C   0  0  0  0  0  0  0  0  0  0  0  0
   22.3511   25.4447   37.2634 C   0  0  0  0  0  0  0  0  0  0  0  0
   21.0257   25.4223   36.8720 C   0  0  0  0  0  0  0  0  0  0  0  0
   19.8820   25.0432   37.7189 C   0  0  0  0  0  0  0  0  0  0  0  0
   20.0609   24.2668   38.6961 O   0  0  0  0  0  0  0  0  0  0  0  0
   18.5706   25.5767   37.4428 N   0  0  0  0  0  0  0  0  0  0  0  0
   18.4631   26.8937   36.7944 C   0  0  0  0  0  0  0  0  0  0  0  0
   18.6323   26.8070   35.2671 C   0  0  0  0  0  0  0  0  0  0  0  0
   19.6830   25.7938   34.7865 C   0  0  0  0  0  0  0  0  0  0  0  0
   20.9050   25.8373   35.5924 N   0  0  0  0  0  0  0  0  0  0  0  0
   22.1425   26.1294   35.1459 C   0  0  0  0  0  0  0  0  0  0  0  0
   17.3711   24.8922   37.9448 C   0  0  0  0  0  0  0  0  0  0  0  0
   17.1357   23.5964   37.1661 C   0  0  0  0  0  0  0  0  0  0  0  0
   15.9262   22.9203   37.6489 C   0  0  0  0  0  0  0  0  0  0  0  0
   14.9720   22.3880   38.0305 N   0  0  0  0  0  0  0  0  0  0  0  0
  1  2  1  0
  2  3  2  0
  2  4  1  0
  4  5  2  0
  5  6  1  0
  6  7  2  0
  7  8  1  0
  8  9  2  0
  9 10  1  0
 10 11  2  0
 11 12  1  0
 12 13  2  0
 13 14  1  0
  1 15  1  0
 15 16  1  0
 16 17  2  0
 17 18  1  0
 18 19  2  0
 18 20  1  0
 20 21  1  0
 21 22  1  0
 22 23  1  0
 23 24  1  0
 24 25  1  0
 20 26  1  0
 26 27  1  0
 27 28  1  0
 28 29  3  0
 13  4  1  0
 25 15  2  0
 12  7  1  0
 24 17  1  0
M  END
>  <AAScore>  (1) 
687.3680146786271

>  <RootName>  (1) 
./4ZLY/04_DeltaGEst/trajectory_00/rank_00/lead_0291

$$$$
