confid_16
     RDKit          3D

 31 36  0  0  0  0  0  0  0  0999 V2000
   25.3300   26.2600   34.7600 N   0  0  0  0  0  0  0  0  0  0  0  0
   26.1200   25.9200   33.6900 C   0  0  0  0  0  0  0  0  0  0  0  0
   25.6300   25.1100   32.9400 O   0  0  0  0  0  0  0  0  0  0  0  0
   27.5200   26.3800   33.4600 C   0  0  0  0  0  0  0  0  0  0  0  0
   28.1600   26.6300   34.6100 N   0  0  0  0  0  0  0  0  0  0  0  0
   29.4800   26.8500   34.5700 N   0  0  0  0  0  0  0  0  0  0  0  0
   30.1900   26.7800   33.4400 C   0  0  0  0  0  0  0  0  0  0  0  0
   31.5600   27.0500   33.5000 C   0  0  0  0  0  0  0  0  0  0  0  0
   32.2700   27.2400   32.3100 C   0  0  0  0  0  0  0  0  0  0  0  0
   31.6100   27.2500   31.0800 C   0  0  0  0  0  0  0  0  0  0  0  0
   30.2700   26.8700   31.0600 C   0  0  0  0  0  0  0  0  0  0  0  0
   29.5100   26.6900   32.2300 C   0  0  0  0  0  0  0  0  0  0  0  0
   28.1400   26.4100   32.2000 C   0  0  0  0  0  0  0  0  0  0  0  0
   27.4300   26.1300   31.0500 N   0  0  0  0  0  0  0  0  0  0  0  0
   23.9149   25.9921   34.8572 C   0  0  0  0  0  0  0  0  0  0  0  0
   23.2169   26.0613   33.7520 N   0  0  0  0  0  0  0  0  0  0  0  0
   21.8513   25.8649   33.3467 C   0  0  0  0  0  0  0  0  0  0  0  0
   20.9670   25.1219   33.9964 C   0  0  0  0  0  0  0  0  0  0  0  0
   19.7968   24.2601   33.6144 C   0  0  0  0  0  0  0  0  0  0  0  0
   19.7009   23.6282   34.8496 O   0  0  0  0  0  0  0  0  0  0  0  0
   20.7003   24.4765   35.3138 C   0  0  1  0  0  0  0  0  0  0  0  0
   21.9341   23.7573   35.8454 C   0  0  0  0  0  0  0  0  0  0  0  0
   22.6728   24.7552   36.6770 C   0  0  0  0  0  0  0  0  0  0  0  0
   23.3492   25.8027   36.2265 C   0  0  0  0  0  0  0  0  0  0  0  0
   23.7672   26.6511   37.3822 C   0  0  0  0  0  0  0  0  0  0  0  0
   23.1516   26.0625   38.5899 N   0  0  0  0  0  0  0  0  0  0  0  0
   22.4719   24.8355   38.1467 C   0  0  0  0  0  0  0  0  0  0  0  0
   22.2487   26.9364   39.3848 C   0  0  0  0  0  0  0  0  0  0  0  0
   22.8637   28.2712   39.7994 C   0  0  0  0  0  0  0  0  0  0  0  0
   21.7706   29.0049   39.0256 C   0  0  0  0  0  0  0  0  0  0  0  0
   21.1590   27.6736   38.6007 C   0  0  0  0  0  0  0  0  0  0  0  0
  1  2  1  0
  2  3  2  0
  2  4  1  0
  4  5  2  0
  5  6  1  0
  6  7  2  0
  7  8  1  0
  8  9  2  0
  9 10  1  0
 10 11  2  0
 11 12  1  0
 12 13  2  0
 13 14  1  0
  1 15  1  0
 15 16  2  0
 16 17  1  0
 17 18  2  0
 18 19  1  0
 19 20  1  0
 20 21  1  0
 21 22  1  6
 22 23  1  0
 23 24  2  0
 24 25  1  0
 25 26  1  0
 26 27  1  0
 26 28  1  0
 28 29  1  0
 29 30  1  0
 30 31  1  0
 13  4  1  0
 24 15  1  0
 31 28  1  0
 12  7  1  0
 21 18  1  0
 27 23  1  0
M  END
>  <AAScore>  (1) 
9445.63542353749

>  <RootName>  (1) 
./4ZLY/04_DeltaGEst/trajectory_03/rank_00/lead_0272

$$$$
