confid_9
     RDKit          3D

 29 33  0  0  0  0  0  0  0  0999 V2000
   24.2000   26.2400   35.6900 N   0  0  0  0  0  0  0  0  0  0  0  0
   24.8500   26.2800   34.4800 C   0  0  0  0  0  0  0  0  0  0  0  0
   24.3100   25.7400   33.5400 O   0  0  0  0  0  0  0  0  0  0  0  0
   26.1800   26.9700   34.4700 C   0  0  0  0  0  0  0  0  0  0  0  0
   26.6500   27.6000   35.5500 N   0  0  0  0  0  0  0  0  0  0  0  0
   27.7900   28.2700   35.6200 N   0  0  0  0  0  0  0  0  0  0  0  0
   28.5400   28.3000   34.5100 C   0  0  0  0  0  0  0  0  0  0  0  0
   29.7700   28.9400   34.5600 C   0  0  0  0  0  0  0  0  0  0  0  0
   30.7000   28.8900   33.5000 C   0  0  0  0  0  0  0  0  0  0  0  0
   30.3700   28.1400   32.3700 C   0  0  0  0  0  0  0  0  0  0  0  0
   29.1200   27.5200   32.2800 C   0  0  0  0  0  0  0  0  0  0  0  0
   28.2100   27.6100   33.3300 C   0  0  0  0  0  0  0  0  0  0  0  0
   26.9700   26.9700   33.3100 C   0  0  0  0  0  0  0  0  0  0  0  0
   26.5300   26.2400   32.2200 N   0  0  0  0  0  0  0  0  0  0  0  0
   30.1352   29.6931   35.7310 N   0  0  0  0  0  0  0  0  0  0  0  0
   31.3000   29.2901   36.5308 C   0  0  0  0  0  0  0  0  0  0  0  0
   32.2727   30.4687   36.6709 C   0  0  0  0  0  0  0  0  0  0  0  0
   31.5614   31.7299   36.9392 N   0  0  0  0  0  0  0  0  0  0  0  0
   32.2817   32.9766   36.8895 C   0  0  0  0  0  0  0  0  0  0  0  0
   31.7552   34.0767   36.1229 C   0  0  0  0  0  0  0  0  0  0  0  0
   32.4235   35.3229   36.0391 C   0  0  0  0  0  0  0  0  0  0  0  0
   33.6127   35.3999   36.7301 C   0  0  0  0  0  0  0  0  0  0  0  0
   34.7625   36.1546   37.1251 C   0  0  0  0  0  0  0  0  0  0  0  0
   35.3243   35.0911   37.8746 N   0  0  0  0  0  0  0  0  0  0  0  0
   36.5152   34.8546   38.6707 C   0  0  0  0  0  0  0  0  0  0  0  0
   34.1424   34.3318   37.4684 C   0  0  0  0  0  0  0  0  0  0  0  0
   33.5213   33.1049   37.5803 C   0  0  0  0  0  0  0  0  0  0  0  0
   30.1102   31.7094   37.1706 C   0  0  0  0  0  0  0  0  0  0  0  0
   29.4220   30.9440   36.0367 C   0  0  0  0  0  0  0  0  0  0  0  0
  1  2  1  0
  2  3  2  0
  2  4  1  0
  4  5  2  0
  5  6  1  0
  6  7  2  0
  7  8  1  0
  8  9  2  0
  9 10  1  0
 10 11  2  0
 11 12  1  0
 12 13  2  0
 13 14  1  0
  8 15  1  0
 15 16  1  0
 16 17  1  0
 17 18  1  0
 18 19  1  0
 19 20  2  0
 20 21  1  0
 21 22  2  0
 22 23  1  0
 23 24  1  0
 24 25  1  0
 24 26  1  0
 26 27  2  0
 18 28  1  0
 28 29  1  0
 13  4  1  0
 29 15  1  0
 12  7  1  0
 27 19  1  0
 26 22  1  0
M  END
>  <AAScore>  (1) 
-8.31752738994859

>  <RootName>  (1) 
./4ZLY/04_DeltaGEst/trajectory_04/rank_01/lead_0107

$$$$
