confid_4
     RDKit          3D

 28 31  0  0  0  0  0  0  0  0999 V2000
   24.5700   26.8800   35.5900 N   0  0  0  0  0  0  0  0  0  0  0  0
   25.5000   26.4000   34.6900 C   0  0  0  0  0  0  0  0  0  0  0  0
   25.1700   25.5200   33.9100 O   0  0  0  0  0  0  0  0  0  0  0  0
   26.8400   27.0200   34.7400 C   0  0  0  0  0  0  0  0  0  0  0  0
   27.3800   27.2800   35.9400 N   0  0  0  0  0  0  0  0  0  0  0  0
   28.6200   27.7400   36.0300 N   0  0  0  0  0  0  0  0  0  0  0  0
   29.3800   28.0000   34.9600 C   0  0  0  0  0  0  0  0  0  0  0  0
   30.6700   28.5000   35.1300 C   0  0  0  0  0  0  0  0  0  0  0  0
   31.5400   28.6100   34.0300 C   0  0  0  0  0  0  0  0  0  0  0  0
   31.0900   28.2200   32.7700 C   0  0  0  0  0  0  0  0  0  0  0  0
   29.8000   27.7000   32.6000 C   0  0  0  0  0  0  0  0  0  0  0  0
   28.9600   27.5500   33.7100 C   0  0  0  0  0  0  0  0  0  0  0  0
   27.6600   27.0300   33.5900 C   0  0  0  0  0  0  0  0  0  0  0  0
   27.1600   26.7400   32.3400 N   0  0  0  0  0  0  0  0  0  0  0  0
   32.8800   29.1205   34.2025 N   0  0  0  0  0  0  0  0  0  0  0  0
   33.1415   30.1961   35.1728 C   0  0  0  0  0  0  0  0  0  0  0  0
   34.2607   31.1195   34.6748 C   0  0  0  0  0  0  0  0  0  0  0  0
   35.3981   30.3565   34.1454 N   0  0  0  0  0  0  0  0  0  0  0  0
   36.5666   31.0568   33.6904 C   0  0  0  0  0  0  0  0  0  0  0  0
   36.9419   31.0087   32.3336 C   0  0  0  0  0  0  0  0  0  0  0  0
   36.1418   30.2825   31.4371 O   0  0  0  0  0  0  0  0  0  0  0  0
   36.4063   30.1479   30.0449 C   0  0  0  0  0  0  0  0  0  0  0  0
   38.0971   31.6981   31.9135 C   0  0  0  0  0  0  0  0  0  0  0  0
   38.8561   32.4285   32.8315 C   0  0  0  0  0  0  0  0  0  0  0  0
   38.4742   32.4803   34.1727 C   0  0  0  0  0  0  0  0  0  0  0  0
   37.3337   31.7988   34.6016 C   0  0  0  0  0  0  0  0  0  0  0  0
   35.3509   28.8923   34.0957 C   0  0  0  0  0  0  0  0  0  0  0  0
   34.0020   28.4405   33.5321 C   0  0  0  0  0  0  0  0  0  0  0  0
  1  2  1  0
  2  3  2  0
  2  4  1  0
  4  5  2  0
  5  6  1  0
  6  7  2  0
  7  8  1  0
  8  9  2  0
  9 10  1  0
 10 11  2  0
 11 12  1  0
 12 13  2  0
 13 14  1  0
  9 15  1  0
 15 16  1  0
 16 17  1  0
 17 18  1  0
 18 19  1  0
 19 20  2  0
 20 21  1  0
 21 22  1  0
 20 23  1  0
 23 24  2  0
 24 25  1  0
 25 26  2  0
 18 27  1  0
 27 28  1  0
 13  4  1  0
 28 15  1  0
 12  7  1  0
 26 19  1  0
M  END
>  <AAScore>  (1) 
-5.321510993901917

>  <RootName>  (1) 
./4ZLY/04_DeltaGEst/trajectory_05/rank_01/lead_0031

$$$$
