confid_14
     RDKit          3D

 27 29  0  0  0  0  0  0  0  0999 V2000
   24.5700   26.8800   35.5900 N   0  0  0  0  0  0  0  0  0  0  0  0
   25.5000   26.4000   34.6900 C   0  0  0  0  0  0  0  0  0  0  0  0
   25.1700   25.5200   33.9100 O   0  0  0  0  0  0  0  0  0  0  0  0
   26.8400   27.0200   34.7400 C   0  0  0  0  0  0  0  0  0  0  0  0
   27.3800   27.2800   35.9400 N   0  0  0  0  0  0  0  0  0  0  0  0
   28.6200   27.7400   36.0300 N   0  0  0  0  0  0  0  0  0  0  0  0
   29.3800   28.0000   34.9600 C   0  0  0  0  0  0  0  0  0  0  0  0
   30.6700   28.5000   35.1300 C   0  0  0  0  0  0  0  0  0  0  0  0
   31.5400   28.6100   34.0300 C   0  0  0  0  0  0  0  0  0  0  0  0
   31.0900   28.2200   32.7700 C   0  0  0  0  0  0  0  0  0  0  0  0
   29.8000   27.7000   32.6000 C   0  0  0  0  0  0  0  0  0  0  0  0
   28.9600   27.5500   33.7100 C   0  0  0  0  0  0  0  0  0  0  0  0
   27.6600   27.0300   33.5900 C   0  0  0  0  0  0  0  0  0  0  0  0
   27.1600   26.7400   32.3400 N   0  0  0  0  0  0  0  0  0  0  0  0
   33.1925   29.2114   34.2406 S   0  0  0  0  0  6  0  0  0  0  0  0
   34.1102   28.3563   33.4129 O   0  0  0  0  0  0  0  0  0  0  0  0
   33.5910   29.0346   35.6803 O   0  0  0  0  0  0  0  0  0  0  0  0
   33.4082   30.8919   33.7666 N   0  0  0  0  0  0  0  0  0  0  0  0
   32.6328   31.2751   32.5701 C   0  0  0  0  0  0  0  0  0  0  0  0
   33.3593   30.8337   31.2949 C   0  0  0  0  0  0  0  0  0  0  0  0
   32.5470   31.1947   30.0462 C   0  0  0  0  0  0  0  0  0  0  0  0
   33.2665   30.7551   28.7745 C   0  0  0  0  0  0  0  0  0  0  0  0
   33.2572   31.8405   34.8901 C   0  0  0  0  0  0  0  0  0  0  0  0
   31.8251   31.9270   35.4452 C   0  0  0  0  0  0  0  0  0  0  0  0
   31.7276   33.0567   36.4782 C   0  0  0  0  0  0  0  0  0  0  0  0
   30.3230   33.5894   36.7164 C   0  0  0  0  0  0  0  0  0  0  0  0
   31.3273   34.4178   35.9292 C   0  0  0  0  0  0  0  0  0  0  0  0
  1  2  1  0
  2  3  2  0
  2  4  1  0
  4  5  2  0
  5  6  1  0
  6  7  2  0
  7  8  1  0
  8  9  2  0
  9 10  1  0
 10 11  2  0
 11 12  1  0
 12 13  2  0
 13 14  1  0
  9 15  1  0
 15 16  2  0
 15 17  2  0
 15 18  1  0
 18 19  1  0
 19 20  1  0
 20 21  1  0
 21 22  1  0
 18 23  1  0
 23 24  1  0
 24 25  1  0
 25 26  1  0
 26 27  1  0
 13  4  1  0
 27 25  1  0
 12  7  1  0
M  END
>  <AAScore>  (1) 
-6.182634976314033

>  <RootName>  (1) 
./4ZLY/04_DeltaGEst/trajectory_05/rank_01/lead_0055

$$$$
