confid_17
     RDKit          3D

 27 30  0  0  0  0  0  0  0  0999 V2000
   24.5500   26.3900   36.2500 N   0  0  0  0  0  0  0  0  0  0  0  0
   25.6000   26.1300   35.4000 C   0  0  0  0  0  0  0  0  0  0  0  0
   25.4300   25.4300   34.4200 O   0  0  0  0  0  0  0  0  0  0  0  0
   26.9800   26.6300   35.7100 C   0  0  0  0  0  0  0  0  0  0  0  0
   27.3200   26.8200   36.9800 N   0  0  0  0  0  0  0  0  0  0  0  0
   28.4700   27.4000   37.3100 N   0  0  0  0  0  0  0  0  0  0  0  0
   29.4000   27.6300   36.3700 C   0  0  0  0  0  0  0  0  0  0  0  0
   30.6600   28.0500   36.8000 C   0  0  0  0  0  0  0  0  0  0  0  0
   31.5700   28.3600   35.7800 C   0  0  0  0  0  0  0  0  0  0  0  0
   31.3700   28.1000   34.4300 C   0  0  0  0  0  0  0  0  0  0  0  0
   30.1200   27.5900   34.0500 C   0  0  0  0  0  0  0  0  0  0  0  0
   29.1500   27.3400   35.0300 C   0  0  0  0  0  0  0  0  0  0  0  0
   27.8800   26.8900   34.6600 C   0  0  0  0  0  0  0  0  0  0  0  0
   27.4800   26.6100   33.3700 N   0  0  0  0  0  0  0  0  0  0  0  0
   30.9655   28.3107   38.1766 N   0  0  0  0  0  0  0  0  0  0  0  0
   30.7815   29.6669   38.7024 C   0  0  0  0  0  0  0  0  0  0  0  0
   31.8860   29.9942   39.7028 C   0  0  0  0  0  0  0  0  0  0  0  0
   31.9590   28.9328   40.7573 C   0  0  0  0  0  0  0  0  0  0  0  0
   32.3557   29.2540   42.0183 N   0  0  0  0  0  0  0  0  0  0  0  0
   32.4532   28.3113   42.9914 C   0  0  0  0  0  0  0  0  0  0  0  0
   32.1517   26.9770   42.6909 C   0  0  0  0  0  0  0  0  0  0  0  0
   31.7628   26.6546   41.4272 N   0  0  0  0  0  0  0  0  0  0  0  0
   31.6599   27.5943   40.4499 C   0  0  0  0  0  0  0  0  0  0  0  0
   31.2579   27.1712   39.0597 C   0  0  0  0  0  0  0  0  0  0  0  0
   32.2130   25.9121   43.7496 C   0  0  0  0  0  0  0  0  0  0  0  0
   30.9763   25.9399   44.6605 C   0  0  0  0  0  0  0  0  0  0  0  0
   29.6996   25.5363   43.9205 C   0  0  0  0  0  0  0  0  0  0  0  0
  1  2  1  0
  2  3  2  0
  2  4  1  0
  4  5  2  0
  5  6  1  0
  6  7  2  0
  7  8  1  0
  8  9  2  0
  9 10  1  0
 10 11  2  0
 11 12  1  0
 12 13  2  0
 13 14  1  0
  8 15  1  0
 15 16  1  0
 16 17  1  0
 17 18  1  0
 18 19  2  0
 19 20  1  0
 20 21  2  0
 21 22  1  0
 22 23  2  0
 23 24  1  0
 21 25  1  0
 25 26  1  0
 26 27  1  0
 13  4  1  0
 24 15  1  0
 12  7  1  0
 23 18  1  0
M  END
>  <AAScore>  (1) 
116.57517585217133

>  <RootName>  (1) 
./4ZLY/04_DeltaGEst/trajectory_01/rank_01/lead_0389

$$$$
