confid_3
     RDKit          3D

 27 30  0  0  0  0  0  0  0  0999 V2000
   24.5700   26.8800   35.5900 N   0  0  0  0  0  0  0  0  0  0  0  0
   25.5000   26.4000   34.6900 C   0  0  0  0  0  0  0  0  0  0  0  0
   25.1700   25.5200   33.9100 O   0  0  0  0  0  0  0  0  0  0  0  0
   26.8400   27.0200   34.7400 C   0  0  0  0  0  0  0  0  0  0  0  0
   27.3800   27.2800   35.9400 N   0  0  0  0  0  0  0  0  0  0  0  0
   28.6200   27.7400   36.0300 N   0  0  0  0  0  0  0  0  0  0  0  0
   29.3800   28.0000   34.9600 C   0  0  0  0  0  0  0  0  0  0  0  0
   30.6700   28.5000   35.1300 C   0  0  0  0  0  0  0  0  0  0  0  0
   31.5400   28.6100   34.0300 C   0  0  0  0  0  0  0  0  0  0  0  0
   31.0900   28.2200   32.7700 C   0  0  0  0  0  0  0  0  0  0  0  0
   29.8000   27.7000   32.6000 C   0  0  0  0  0  0  0  0  0  0  0  0
   28.9600   27.5500   33.7100 C   0  0  0  0  0  0  0  0  0  0  0  0
   27.6600   27.0300   33.5900 C   0  0  0  0  0  0  0  0  0  0  0  0
   27.1600   26.7400   32.3400 N   0  0  0  0  0  0  0  0  0  0  0  0
   23.3015   26.2639   35.8734 C   0  0  0  0  0  0  0  0  0  0  0  0
   22.4237   26.8934   36.6980 N   0  0  0  0  0  0  0  0  0  0  0  0
   21.2198   26.3430   36.9978 C   0  0  0  0  0  0  0  0  0  0  0  0
   20.8548   25.1079   36.4484 C   0  0  0  0  0  0  0  0  0  0  0  0
   19.5369   24.4613   36.8026 C   0  0  0  0  0  0  0  0  0  0  0  0
   19.6574   23.8425   38.0352 F   0  0  0  0  0  0  0  0  0  0  0  0
   19.1242   23.4268   35.7476 C   0  0  0  0  0  0  0  0  0  0  0  0
   20.2638   22.4435   35.4697 C   0  0  0  0  0  0  0  0  0  0  0  0
   21.4776   23.1603   35.0569 N   0  0  0  0  0  0  0  0  0  0  0  0
   22.4328   22.5141   34.1534 C   0  0  0  0  0  0  0  0  0  0  0  0
   21.7863   24.4499   35.6250 C   0  0  0  0  0  0  0  0  0  0  0  0
   22.9776   25.0491   35.3539 N   0  0  0  0  0  0  0  0  0  0  0  0
   18.5442   25.4239   36.8862 F   0  0  0  0  0  0  0  0  0  0  0  0
  1  2  1  0
  2  3  2  0
  2  4  1  0
  4  5  2  0
  5  6  1  0
  6  7  2  0
  7  8  1  0
  8  9  2  0
  9 10  1  0
 10 11  2  0
 11 12  1  0
 12 13  2  0
 13 14  1  0
  1 15  1  0
 15 16  2  0
 16 17  1  0
 17 18  2  0
 18 19  1  0
 19 20  1  0
 19 21  1  0
 21 22  1  0
 22 23  1  0
 23 24  1  0
 23 25  1  0
 25 26  2  0
 19 27  1  0
 13  4  1  0
 26 15  1  0
 12  7  1  0
 25 18  1  0
M  END
>  <AAScore>  (1) 
44394.6262682877

>  <RootName>  (1) 
./4ZLY/04_DeltaGEst/trajectory_05/rank_00/lead_0438

$$$$
