confid_11
     RDKit          3D

 27 30  0  0  0  0  0  0  0  0999 V2000
   24.5500   26.3900   36.2500 N   0  0  0  0  0  0  0  0  0  0  0  0
   25.6000   26.1300   35.4000 C   0  0  0  0  0  0  0  0  0  0  0  0
   25.4300   25.4300   34.4200 O   0  0  0  0  0  0  0  0  0  0  0  0
   26.9800   26.6300   35.7100 C   0  0  0  0  0  0  0  0  0  0  0  0
   27.3200   26.8200   36.9800 N   0  0  0  0  0  0  0  0  0  0  0  0
   28.4700   27.4000   37.3100 N   0  0  0  0  0  0  0  0  0  0  0  0
   29.4000   27.6300   36.3700 C   0  0  0  0  0  0  0  0  0  0  0  0
   30.6600   28.0500   36.8000 C   0  0  0  0  0  0  0  0  0  0  0  0
   31.5700   28.3600   35.7800 C   0  0  0  0  0  0  0  0  0  0  0  0
   31.3700   28.1000   34.4300 C   0  0  0  0  0  0  0  0  0  0  0  0
   30.1200   27.5900   34.0500 C   0  0  0  0  0  0  0  0  0  0  0  0
   29.1500   27.3400   35.0300 C   0  0  0  0  0  0  0  0  0  0  0  0
   27.8800   26.8900   34.6600 C   0  0  0  0  0  0  0  0  0  0  0  0
   27.4800   26.6100   33.3700 N   0  0  0  0  0  0  0  0  0  0  0  0
   30.9698   28.3252   38.1809 N   0  0  0  0  0  0  0  0  0  0  0  0
   32.1626   27.7175   38.7784 C   0  0  0  0  0  0  0  0  0  0  0  0
   31.8320   27.2057   40.1796 C   0  0  0  0  0  0  0  0  0  0  0  0
   31.1564   28.2497   40.9597 N   0  0  0  0  0  0  0  0  0  0  0  0
   31.2570   28.2634   42.4180 C   0  0  0  0  0  0  0  0  0  0  0  0
   30.2775   29.1899   40.3170 C   0  0  0  0  0  0  0  0  0  0  0  0
   30.1753   29.2340   38.9794 C   0  0  0  0  0  0  0  0  0  0  0  0
   29.2852   30.2368   38.3412 C   0  0  0  0  0  0  0  0  0  0  0  0
   29.7480   31.0273   37.2788 C   0  0  0  0  0  0  0  0  0  0  0  0
   28.8962   31.9498   36.6695 C   0  0  0  0  0  0  0  0  0  0  0  0
   27.5856   32.0792   37.1313 C   0  0  0  0  0  0  0  0  0  0  0  0
   27.1495   31.3129   38.1656 N   0  0  0  0  0  0  0  0  0  0  0  0
   27.9598   30.4074   38.7761 C   0  0  0  0  0  0  0  0  0  0  0  0
  1  2  1  0
  2  3  2  0
  2  4  1  0
  4  5  2  0
  5  6  1  0
  6  7  2  0
  7  8  1  0
  8  9  2  0
  9 10  1  0
 10 11  2  0
 11 12  1  0
 12 13  2  0
 13 14  1  0
  8 15  1  0
 15 16  1  0
 16 17  1  0
 17 18  1  0
 18 19  1  0
 18 20  1  0
 20 21  2  0
 21 22  1  0
 22 23  2  0
 23 24  1  0
 24 25  2  0
 25 26  1  0
 26 27  2  0
 13  4  1  0
 21 15  1  0
 27 22  1  0
 12  7  1  0
M  END
>  <AAScore>  (1) 
-3.0247294329860765

>  <RootName>  (1) 
./4ZLY/04_DeltaGEst/trajectory_01/rank_01/lead_0468

$$$$
