confid_18
     RDKit          3D

 27 30  0  0  0  0  0  0  0  0999 V2000
   24.4800   26.1000   36.1300 N   0  0  0  0  0  0  0  0  0  0  0  0
   25.2500   26.2500   34.9900 C   0  0  0  0  0  0  0  0  0  0  0  0
   24.7400   25.7600   33.9900 O   0  0  0  0  0  0  0  0  0  0  0  0
   26.5900   26.8900   34.9600 C   0  0  0  0  0  0  0  0  0  0  0  0
   27.0600   27.2400   36.1600 N   0  0  0  0  0  0  0  0  0  0  0  0
   28.3000   27.7100   36.2400 N   0  0  0  0  0  0  0  0  0  0  0  0
   29.0500   27.9600   35.1500 C   0  0  0  0  0  0  0  0  0  0  0  0
   30.3400   28.4900   35.2600 C   0  0  0  0  0  0  0  0  0  0  0  0
   31.1100   28.8200   34.1400 C   0  0  0  0  0  0  0  0  0  0  0  0
   30.5200   28.6700   32.8800 C   0  0  0  0  0  0  0  0  0  0  0  0
   29.2900   28.0200   32.7700 C   0  0  0  0  0  0  0  0  0  0  0  0
   28.5200   27.7100   33.8900 C   0  0  0  0  0  0  0  0  0  0  0  0
   27.2700   27.0800   33.7600 C   0  0  0  0  0  0  0  0  0  0  0  0
   26.7500   26.8800   32.4900 N   0  0  0  0  0  0  0  0  0  0  0  0
   23.0412   26.0747   36.1579 C   0  0  0  0  0  0  0  0  0  0  0  0
   22.4104   25.4240   37.2055 N   0  0  0  0  0  0  0  0  0  0  0  0
   21.0474   25.3599   37.3485 C   0  0  0  0  0  0  0  0  0  0  0  0
   20.3068   26.0010   36.3820 C   0  0  0  0  0  0  0  0  0  0  0  0
   19.0018   26.3791   35.8556 C   0  0  1  0  0  0  0  0  0  0  0  0
   18.2236   27.2894   36.8248 C   0  0  0  0  0  0  0  0  0  0  0  0
   17.0513   27.8986   36.1578 N   0  0  0  0  0  0  0  0  0  0  0  0
   16.6276   29.1065   36.8841 C   0  0  0  0  0  0  0  0  0  0  0  0
   15.9262   26.9494   36.0898 C   0  0  0  0  0  0  0  0  0  0  0  0
   19.5902   27.1024   34.7456 C   0  0  0  0  0  0  0  0  0  0  0  0
   19.1878   27.7694   33.7575 O   0  0  0  0  0  0  0  0  0  0  0  0
   20.9061   26.6799   35.3214 C   0  0  0  0  0  0  0  0  0  0  0  0
   22.2748   26.7530   35.1630 C   0  0  0  0  0  0  0  0  0  0  0  0
  1  2  1  0
  2  3  2  0
  2  4  1  0
  4  5  2  0
  5  6  1  0
  6  7  2  0
  7  8  1  0
  8  9  2  0
  9 10  1  0
 10 11  2  0
 11 12  1  0
 12 13  2  0
 13 14  1  0
  1 15  1  0
 15 16  2  0
 16 17  1  0
 17 18  2  0
 18 19  1  0
 19 20  1  1
 20 21  1  0
 21 22  1  0
 21 23  1  0
 19 24  1  0
 24 25  2  0
 24 26  1  0
 26 27  2  0
 13  4  1  0
 27 15  1  0
 12  7  1  0
 26 18  1  0
M  END
>  <AAScore>  (1) 
231.9159324985871

>  <RootName>  (1) 
./4ZLY/04_DeltaGEst/trajectory_00/rank_01/lead_0256

$$$$
