confid_11
     RDKit          3D

 28 31  0  0  0  0  0  0  0  0999 V2000
   24.5700   26.8800   35.5900 N   0  0  0  0  0  0  0  0  0  0  0  0
   25.5000   26.4000   34.6900 C   0  0  0  0  0  0  0  0  0  0  0  0
   25.1700   25.5200   33.9100 O   0  0  0  0  0  0  0  0  0  0  0  0
   26.8400   27.0200   34.7400 C   0  0  0  0  0  0  0  0  0  0  0  0
   27.3800   27.2800   35.9400 N   0  0  0  0  0  0  0  0  0  0  0  0
   28.6200   27.7400   36.0300 N   0  0  0  0  0  0  0  0  0  0  0  0
   29.3800   28.0000   34.9600 C   0  0  0  0  0  0  0  0  0  0  0  0
   30.6700   28.5000   35.1300 C   0  0  0  0  0  0  0  0  0  0  0  0
   31.5400   28.6100   34.0300 C   0  0  0  0  0  0  0  0  0  0  0  0
   31.0900   28.2200   32.7700 C   0  0  0  0  0  0  0  0  0  0  0  0
   29.8000   27.7000   32.6000 C   0  0  0  0  0  0  0  0  0  0  0  0
   28.9600   27.5500   33.7100 C   0  0  0  0  0  0  0  0  0  0  0  0
   27.6600   27.0300   33.5900 C   0  0  0  0  0  0  0  0  0  0  0  0
   27.1600   26.7400   32.3400 N   0  0  0  0  0  0  0  0  0  0  0  0
   23.4661   26.2064   35.1242 C   0  0  0  0  0  0  0  0  0  0  0  0
   22.6328   25.6978   34.7726 N   0  0  0  0  0  0  0  0  0  0  0  0
   21.6161   24.9224   34.1705 C   0  0  0  0  0  0  0  0  0  0  0  0
   20.5137   25.4824   33.5530 C   0  0  0  0  0  0  0  0  0  0  0  0
   19.8364   24.2822   33.1441 C   0  0  0  0  0  0  0  0  0  0  0  0
   19.6756   24.1163   31.7241 N   0  0  0  0  0  0  0  0  0  0  0  0
   18.4760   23.2923   31.5419 C   0  0  0  0  0  0  0  0  0  0  0  0
   19.5179   25.3725   30.9959 C   0  0  0  0  0  0  0  0  0  0  0  0
   18.6785   26.3578   31.6925 C   0  0  0  0  0  0  0  0  0  0  0  0
   18.9933   27.0586   32.7536 N   0  0  0  0  0  0  0  0  0  0  0  0
   20.2462   26.9675   33.4116 C   0  0  1  0  0  0  0  0  0  0  0  0
   20.3772   27.6823   34.6992 C   0  0  0  0  0  0  0  0  0  0  0  0
   21.8043   28.1025   35.0431 C   0  0  0  0  0  0  0  0  0  0  0  0
   22.3745   27.3847   36.2083 C   0  0  0  0  0  0  0  0  0  0  0  0
  1  2  1  0
  2  3  2  0
  2  4  1  0
  4  5  2  0
  5  6  1  0
  6  7  2  0
  7  8  1  0
  8  9  2  0
  9 10  1  0
 10 11  2  0
 11 12  1  0
 12 13  2  0
 13 14  1  0
  1 15  1  0
 15 16  2  0
 16 17  1  0
 17 18  2  0
 18 19  1  0
 19 20  1  0
 20 21  1  0
 20 22  1  0
 22 23  1  0
 23 24  2  0
 24 25  1  0
 25 26  1  1
 26 27  1  0
 27 28  1  0
 13  4  1  0
 28 15  1  0
 12  7  1  0
 25 18  1  0
M  END
>  <AAScore>  (1) 
189.8691143083524

>  <RootName>  (1) 
./4ZLY/04_DeltaGEst/trajectory_05/rank_00/lead_0025

$$$$
