confid_2
     RDKit          3D

 28 31  0  0  0  0  0  0  0  0999 V2000
   24.2000   26.2400   35.6900 N   0  0  0  0  0  0  0  0  0  0  0  0
   24.8500   26.2800   34.4800 C   0  0  0  0  0  0  0  0  0  0  0  0
   24.3100   25.7400   33.5400 O   0  0  0  0  0  0  0  0  0  0  0  0
   26.1800   26.9700   34.4700 C   0  0  0  0  0  0  0  0  0  0  0  0
   26.6500   27.6000   35.5500 N   0  0  0  0  0  0  0  0  0  0  0  0
   27.7900   28.2700   35.6200 N   0  0  0  0  0  0  0  0  0  0  0  0
   28.5400   28.3000   34.5100 C   0  0  0  0  0  0  0  0  0  0  0  0
   29.7700   28.9400   34.5600 C   0  0  0  0  0  0  0  0  0  0  0  0
   30.7000   28.8900   33.5000 C   0  0  0  0  0  0  0  0  0  0  0  0
   30.3700   28.1400   32.3700 C   0  0  0  0  0  0  0  0  0  0  0  0
   29.1200   27.5200   32.2800 C   0  0  0  0  0  0  0  0  0  0  0  0
   28.2100   27.6100   33.3300 C   0  0  0  0  0  0  0  0  0  0  0  0
   26.9700   26.9700   33.3100 C   0  0  0  0  0  0  0  0  0  0  0  0
   26.5300   26.2400   32.2200 N   0  0  0  0  0  0  0  0  0  0  0  0
   30.1405   29.6601   35.7483 N   0  0  0  0  0  0  0  0  0  0  0  0
   30.6095   28.9245   36.9214 C   0  0  0  0  0  0  0  0  0  0  0  0
   29.9873   29.5290   38.1745 C   0  0  0  0  0  0  0  0  0  0  0  0
   30.1545   31.0273   38.2087 C   0  0  0  0  0  0  0  0  0  0  0  0
   30.0775   31.6875   39.4424 C   0  0  0  0  0  0  0  0  0  0  0  0
   30.1754   33.0775   39.5209 C   0  0  0  0  0  0  0  0  0  0  0  0
   30.0996   33.6770   40.7874 O   0  0  0  0  0  0  0  0  0  0  0  0
   30.1824   35.0790   41.0226 C   0  0  0  0  0  0  0  0  0  0  0  0
   30.3432   33.8237   38.3421 C   0  0  0  0  0  0  0  0  0  0  0  0
   30.4062   33.1832   37.0897 C   0  0  0  0  0  0  0  0  0  0  0  0
   30.2977   31.7798   37.0193 C   0  0  0  0  0  0  0  0  0  0  0  0
   30.3913   31.1021   35.6672 C   0  0  0  0  0  0  0  0  0  0  0  0
   30.5762   33.9080   35.8973 O   0  0  0  0  0  0  0  0  0  0  0  0
   30.6997   35.3245   35.8192 C   0  0  0  0  0  0  0  0  0  0  0  0
  1  2  1  0
  2  3  2  0
  2  4  1  0
  4  5  2  0
  5  6  1  0
  6  7  2  0
  7  8  1  0
  8  9  2  0
  9 10  1  0
 10 11  2  0
 11 12  1  0
 12 13  2  0
 13 14  1  0
  8 15  1  0
 15 16  1  0
 16 17  1  0
 17 18  1  0
 18 19  2  0
 19 20  1  0
 20 21  1  0
 21 22  1  0
 20 23  2  0
 23 24  1  0
 24 25  2  0
 25 26  1  0
 24 27  1  0
 27 28  1  0
 13  4  1  0
 26 15  1  0
 12  7  1  0
 25 18  1  0
M  END
>  <AAScore>  (1) 
-7.985418565624791

>  <RootName>  (1) 
./4ZLY/04_DeltaGEst/trajectory_04/rank_01/lead_0061

$$$$
