confid_9
     RDKit          3D

 27 29  0  0  0  0  0  0  0  0999 V2000
   24.5700   26.8800   35.5900 N   0  0  0  0  0  0  0  0  0  0  0  0
   25.5000   26.4000   34.6900 C   0  0  0  0  0  0  0  0  0  0  0  0
   25.1700   25.5200   33.9100 O   0  0  0  0  0  0  0  0  0  0  0  0
   26.8400   27.0200   34.7400 C   0  0  0  0  0  0  0  0  0  0  0  0
   27.3800   27.2800   35.9400 N   0  0  0  0  0  0  0  0  0  0  0  0
   28.6200   27.7400   36.0300 N   0  0  0  0  0  0  0  0  0  0  0  0
   29.3800   28.0000   34.9600 C   0  0  0  0  0  0  0  0  0  0  0  0
   30.6700   28.5000   35.1300 C   0  0  0  0  0  0  0  0  0  0  0  0
   31.5400   28.6100   34.0300 C   0  0  0  0  0  0  0  0  0  0  0  0
   31.0900   28.2200   32.7700 C   0  0  0  0  0  0  0  0  0  0  0  0
   29.8000   27.7000   32.6000 C   0  0  0  0  0  0  0  0  0  0  0  0
   28.9600   27.5500   33.7100 C   0  0  0  0  0  0  0  0  0  0  0  0
   27.6600   27.0300   33.5900 C   0  0  0  0  0  0  0  0  0  0  0  0
   27.1600   26.7400   32.3400 N   0  0  0  0  0  0  0  0  0  0  0  0
   33.1583   29.2750   34.2197 S   0  0  0  0  0  6  0  0  0  0  0  0
   34.1370   28.2745   33.6726 O   0  0  0  0  0  0  0  0  0  0  0  0
   33.4630   29.4719   35.6782 O   0  0  0  0  0  0  0  0  0  0  0  0
   33.3731   30.8238   33.3228 C   0  0  0  0  0  0  0  0  0  0  0  0
   32.5047   32.0318   33.8024 C   0  0  0  0  0  0  0  0  0  0  0  0
   31.0352   31.8297   33.3505 C   0  0  0  0  0  0  0  0  0  0  0  0
   33.0078   33.3029   33.0761 C   0  0  0  0  0  0  0  0  0  0  0  0
   32.6498   32.2548   35.3218 C   0  0  0  0  0  0  0  0  0  0  0  0
   33.9316   32.4869   35.8727 C   0  0  0  0  0  0  0  0  0  0  0  0
   34.1011   32.6841   37.2454 C   0  0  0  0  0  0  0  0  0  0  0  0
   32.9992   32.6582   38.0982 C   0  0  0  0  0  0  0  0  0  0  0  0
   31.7244   32.4347   37.5803 C   0  0  0  0  0  0  0  0  0  0  0  0
   31.5451   32.2373   36.2080 C   0  0  0  0  0  0  0  0  0  0  0  0
  1  2  1  0
  2  3  2  0
  2  4  1  0
  4  5  2  0
  5  6  1  0
  6  7  2  0
  7  8  1  0
  8  9  2  0
  9 10  1  0
 10 11  2  0
 11 12  1  0
 12 13  2  0
 13 14  1  0
  9 15  1  0
 15 16  2  0
 15 17  2  0
 15 18  1  0
 18 19  1  0
 19 20  1  0
 19 21  1  0
 19 22  1  0
 22 23  2  0
 23 24  1  0
 24 25  2  0
 25 26  1  0
 26 27  2  0
 13  4  1  0
 27 22  1  0
 12  7  1  0
M  END
>  <AAScore>  (1) 
-6.627458075134486

>  <RootName>  (1) 
./4ZLY/04_DeltaGEst/trajectory_05/rank_01/lead_0012

$$$$
