confid_5
     RDKit          3D

 28 31  0  0  0  0  0  0  0  0999 V2000
   24.5500   26.3900   36.2500 N   0  0  0  0  0  0  0  0  0  0  0  0
   25.6000   26.1300   35.4000 C   0  0  0  0  0  0  0  0  0  0  0  0
   25.4300   25.4300   34.4200 O   0  0  0  0  0  0  0  0  0  0  0  0
   26.9800   26.6300   35.7100 C   0  0  0  0  0  0  0  0  0  0  0  0
   27.3200   26.8200   36.9800 N   0  0  0  0  0  0  0  0  0  0  0  0
   28.4700   27.4000   37.3100 N   0  0  0  0  0  0  0  0  0  0  0  0
   29.4000   27.6300   36.3700 C   0  0  0  0  0  0  0  0  0  0  0  0
   30.6600   28.0500   36.8000 C   0  0  0  0  0  0  0  0  0  0  0  0
   31.5700   28.3600   35.7800 C   0  0  0  0  0  0  0  0  0  0  0  0
   31.3700   28.1000   34.4300 C   0  0  0  0  0  0  0  0  0  0  0  0
   30.1200   27.5900   34.0500 C   0  0  0  0  0  0  0  0  0  0  0  0
   29.1500   27.3400   35.0300 C   0  0  0  0  0  0  0  0  0  0  0  0
   27.8800   26.8900   34.6600 C   0  0  0  0  0  0  0  0  0  0  0  0
   27.4800   26.6100   33.3700 N   0  0  0  0  0  0  0  0  0  0  0  0
   23.2121   25.8062   36.0839 C   0  0  0  0  0  0  0  0  0  0  0  0
   22.1213   26.8410   36.4481 C   0  0  0  0  0  0  0  0  0  0  0  0
   20.9084   26.2067   37.1570 C   0  0  0  0  0  0  0  0  0  0  0  0
   20.5850   24.8663   36.6268 N   0  0  0  0  0  0  0  0  0  0  0  0
   20.0505   24.9185   35.2477 C   0  0  0  0  0  0  0  0  0  0  0  0
   19.0355   23.7910   35.0337 C   0  0  0  0  0  0  0  0  0  0  0  0
   18.4800   23.8350   33.6363 C   0  0  0  0  0  0  0  0  0  0  0  0
   17.3350   24.5838   33.3378 C   0  0  0  0  0  0  0  0  0  0  0  0
   16.8708   24.6367   32.0624 N   0  0  0  0  0  0  0  0  0  0  0  0
   17.5072   23.9773   31.0598 C   0  0  0  0  0  0  0  0  0  0  0  0
   18.6282   23.2568   31.3226 N   0  0  0  0  0  0  0  0  0  0  0  0
   19.1270   23.1766   32.5834 C   0  0  0  0  0  0  0  0  0  0  0  0
   21.7002   23.8929   36.7838 C   0  0  0  0  0  0  0  0  0  0  0  0
   23.0898   24.5446   36.9450 C   0  0  0  0  0  0  0  0  0  0  0  0
  1  2  1  0
  2  3  2  0
  2  4  1  0
  4  5  2  0
  5  6  1  0
  6  7  2  0
  7  8  1  0
  8  9  2  0
  9 10  1  0
 10 11  2  0
 11 12  1  0
 12 13  2  0
 13 14  1  0
  1 15  1  0
 15 16  1  0
 16 17  1  0
 17 18  1  0
 18 19  1  0
 19 20  1  0
 20 21  1  0
 21 22  2  0
 22 23  1  0
 23 24  2  0
 24 25  1  0
 25 26  2  0
 18 27  1  0
 27 28  1  0
 13  4  1  0
 28 15  1  0
 12  7  1  0
 26 21  1  0
M  END
>  <AAScore>  (1) 
1079.3742812202431

>  <RootName>  (1) 
./4ZLY/04_DeltaGEst/trajectory_01/rank_00/lead_0085

$$$$
