confid_9
     RDKit          3D

 26 29  0  0  0  0  0  0  0  0999 V2000
   24.4800   26.1000   36.1300 N   0  0  0  0  0  0  0  0  0  0  0  0
   25.2500   26.2500   34.9900 C   0  0  0  0  0  0  0  0  0  0  0  0
   24.7400   25.7600   33.9900 O   0  0  0  0  0  0  0  0  0  0  0  0
   26.5900   26.8900   34.9600 C   0  0  0  0  0  0  0  0  0  0  0  0
   27.0600   27.2400   36.1600 N   0  0  0  0  0  0  0  0  0  0  0  0
   28.3000   27.7100   36.2400 N   0  0  0  0  0  0  0  0  0  0  0  0
   29.0500   27.9600   35.1500 C   0  0  0  0  0  0  0  0  0  0  0  0
   30.3400   28.4900   35.2600 C   0  0  0  0  0  0  0  0  0  0  0  0
   31.1100   28.8200   34.1400 C   0  0  0  0  0  0  0  0  0  0  0  0
   30.5200   28.6700   32.8800 C   0  0  0  0  0  0  0  0  0  0  0  0
   29.2900   28.0200   32.7700 C   0  0  0  0  0  0  0  0  0  0  0  0
   28.5200   27.7100   33.8900 C   0  0  0  0  0  0  0  0  0  0  0  0
   27.2700   27.0800   33.7600 C   0  0  0  0  0  0  0  0  0  0  0  0
   26.7500   26.8800   32.4900 N   0  0  0  0  0  0  0  0  0  0  0  0
   23.0431   26.0364   36.1693 C   0  0  0  0  0  0  0  0  0  0  0  0
   22.3614   25.8573   37.3244 N   0  0  0  0  0  0  0  0  0  0  0  0
   21.0172   25.8873   37.1178 C   0  0  0  0  0  0  0  0  0  0  0  0
   20.0170   25.6599   38.2004 C   0  0  0  0  0  0  0  0  0  0  0  0
   18.6974   26.3586   37.8480 C   0  0  0  0  0  0  0  0  0  0  0  0
   18.2552   26.0185   36.4772 N   0  0  0  0  0  0  0  0  0  0  0  0
   19.2043   26.0768   35.3450 C   0  0  0  0  0  0  0  0  0  0  0  0
   20.6266   26.0737   35.8067 C   0  0  0  0  0  0  0  0  0  0  0  0
   21.9988   26.2362   34.8515 S   0  0  0  0  0  0  0  0  0  0  0  0
   16.8524   25.8624   36.1699 C   0  0  0  0  0  0  0  0  0  0  0  0
   16.5057   25.3928   35.0508 O   0  0  0  0  0  0  0  0  0  0  0  0
   15.7767   26.2321   37.1483 C   0  0  0  0  0  0  0  0  0  0  0  0
  1  2  1  0
  2  3  2  0
  2  4  1  0
  4  5  2  0
  5  6  1  0
  6  7  2  0
  7  8  1  0
  8  9  2  0
  9 10  1  0
 10 11  2  0
 11 12  1  0
 12 13  2  0
 13 14  1  0
  1 15  1  0
 15 16  2  0
 16 17  1  0
 17 18  1  0
 18 19  1  0
 19 20  1  0
 20 21  1  0
 21 22  1  0
 22 23  1  0
 20 24  1  0
 24 25  2  0
 24 26  1  0
 13  4  1  0
 23 15  1  0
 12  7  1  0
 22 17  2  0
M  END
>  <AAScore>  (1) 
981.3401333904034

>  <RootName>  (1) 
./4ZLY/04_DeltaGEst/trajectory_00/rank_01/lead_0320

$$$$
