confid_4
     RDKit          3D

 28 31  0  0  0  0  0  0  0  0999 V2000
   24.6900   26.1200   35.5300 N   0  0  0  0  0  0  0  0  0  0  0  0
   25.6600   25.6700   34.6600 C   0  0  0  0  0  0  0  0  0  0  0  0
   25.2400   25.0100   33.7200 O   0  0  0  0  0  0  0  0  0  0  0  0
   27.0300   26.2200   34.8800 C   0  0  0  0  0  0  0  0  0  0  0  0
   27.3500   26.7300   36.0700 N   0  0  0  0  0  0  0  0  0  0  0  0
   28.5700   27.1800   36.3300 N   0  0  0  0  0  0  0  0  0  0  0  0
   29.5300   27.1100   35.3900 C   0  0  0  0  0  0  0  0  0  0  0  0
   30.8300   27.5700   35.6500 C   0  0  0  0  0  0  0  0  0  0  0  0
   31.8500   27.5400   34.6900 C   0  0  0  0  0  0  0  0  0  0  0  0
   31.5100   27.1200   33.4000 C   0  0  0  0  0  0  0  0  0  0  0  0
   30.2200   26.6300   33.1100 C   0  0  0  0  0  0  0  0  0  0  0  0
   29.2400   26.6600   34.1000 C   0  0  0  0  0  0  0  0  0  0  0  0
   27.9300   26.2600   33.8100 C   0  0  0  0  0  0  0  0  0  0  0  0
   27.5200   25.7100   32.6100 N   0  0  0  0  0  0  0  0  0  0  0  0
   23.2731   25.8929   35.3632 C   0  0  0  0  0  0  0  0  0  0  0  0
   22.7664   25.8496   34.1607 N   0  0  0  0  0  0  0  0  0  0  0  0
   21.4362   25.5639   33.6895 C   0  0  0  0  0  0  0  0  0  0  0  0
   20.5946   24.6456   34.2008 C   0  0  0  0  0  0  0  0  0  0  0  0
   19.2501   24.1225   33.7434 C   0  0  0  0  0  0  0  0  0  0  0  0
   19.0433   23.1860   34.8393 N   0  0  0  0  0  0  0  0  0  0  0  0
   19.0182   21.7771   34.3655 C   0  0  0  0  0  0  0  0  0  0  0  0
   17.6326   21.4213   33.8224 C   0  0  0  0  0  0  0  0  0  0  0  0
   20.3258   23.6827   35.3551 C   0  0  1  0  0  0  0  0  0  0  0  0
   21.4367   22.6329   35.6078 C   0  0  0  0  0  0  0  0  0  0  0  0
   22.7488   23.1974   36.1836 C   0  0  0  0  0  0  0  0  0  0  0  0
   22.5207   24.2997   37.1674 N   0  0  0  0  0  0  0  0  0  0  0  0
   23.4833   24.2354   38.2869 C   0  0  0  0  0  0  0  0  0  0  0  0
   22.4383   25.6827   36.6008 C   0  0  0  0  0  0  0  0  0  0  0  0
  1  2  1  0
  2  3  2  0
  2  4  1  0
  4  5  2  0
  5  6  1  0
  6  7  2  0
  7  8  1  0
  8  9  2  0
  9 10  1  0
 10 11  2  0
 11 12  1  0
 12 13  2  0
 13 14  1  0
  1 15  1  0
 15 16  2  0
 16 17  1  0
 17 18  2  0
 18 19  1  0
 19 20  1  0
 20 21  1  0
 21 22  1  0
 20 23  1  0
 23 24  1  6
 24 25  1  0
 25 26  1  0
 26 27  1  0
 26 28  1  0
 13  4  1  0
 28 15  1  0
 12  7  1  0
 23 18  1  0
M  END
>  <AAScore>  (1) 
1235.2962491347075

>  <RootName>  (1) 
./4ZLY/04_DeltaGEst/trajectory_02/rank_00/lead_0461

$$$$
