confid_14
     RDKit          3D

 28 31  0  0  0  0  0  0  0  0999 V2000
   24.6900   26.1200   35.5300 N   0  0  0  0  0  0  0  0  0  0  0  0
   25.6600   25.6700   34.6600 C   0  0  0  0  0  0  0  0  0  0  0  0
   25.2400   25.0100   33.7200 O   0  0  0  0  0  0  0  0  0  0  0  0
   27.0300   26.2200   34.8800 C   0  0  0  0  0  0  0  0  0  0  0  0
   27.3500   26.7300   36.0700 N   0  0  0  0  0  0  0  0  0  0  0  0
   28.5700   27.1800   36.3300 N   0  0  0  0  0  0  0  0  0  0  0  0
   29.5300   27.1100   35.3900 C   0  0  0  0  0  0  0  0  0  0  0  0
   30.8300   27.5700   35.6500 C   0  0  0  0  0  0  0  0  0  0  0  0
   31.8500   27.5400   34.6900 C   0  0  0  0  0  0  0  0  0  0  0  0
   31.5100   27.1200   33.4000 C   0  0  0  0  0  0  0  0  0  0  0  0
   30.2200   26.6300   33.1100 C   0  0  0  0  0  0  0  0  0  0  0  0
   29.2400   26.6600   34.1000 C   0  0  0  0  0  0  0  0  0  0  0  0
   27.9300   26.2600   33.8100 C   0  0  0  0  0  0  0  0  0  0  0  0
   27.5200   25.7100   32.6100 N   0  0  0  0  0  0  0  0  0  0  0  0
   23.5134   25.3643   35.8623 C   0  0  0  0  0  0  0  0  0  0  0  0
   23.4211   24.0906   35.6497 N   0  0  0  0  0  0  0  0  0  0  0  0
   22.2171   23.6426   36.2547 C   0  0  0  0  0  0  0  0  0  0  0  0
   21.5868   24.6432   36.8576 C   0  0  0  0  0  0  0  0  0  0  0  0
   21.1089   24.5397   38.2761 C   0  0  0  0  0  0  0  0  0  0  0  0
   21.8339   25.6138   38.9403 N   0  0  0  0  0  0  0  0  0  0  0  0
   21.7942   25.8853   40.3718 C   0  0  0  0  0  0  0  0  0  0  0  0
   22.5771   26.3669   37.9857 C   0  0  0  0  0  0  0  0  0  0  0  0
   23.3663   27.2942   38.3100 O   0  0  0  0  0  0  0  0  0  0  0  0
   22.3127   25.9268   36.5789 C   0  0  1  0  0  0  0  0  0  0  0  0
   21.4429   26.9350   35.7186 C   0  0  0  0  0  0  0  0  0  0  0  0
   20.1335   27.3103   36.4567 C   0  0  0  0  0  0  0  0  0  0  0  0
   22.2170   28.2434   35.4381 C   0  0  0  0  0  0  0  0  0  0  0  0
   21.0568   26.3099   34.3542 C   0  0  0  0  0  0  0  0  0  0  0  0
  1  2  1  0
  2  3  2  0
  2  4  1  0
  4  5  2  0
  5  6  1  0
  6  7  2  0
  7  8  1  0
  8  9  2  0
  9 10  1  0
 10 11  2  0
 11 12  1  0
 12 13  2  0
 13 14  1  0
  1 15  1  0
 15 16  2  0
 16 17  1  0
 17 18  2  0
 18 19  1  0
 19 20  1  0
 20 21  1  0
 20 22  1  0
 22 23  2  0
 22 24  1  0
 24 25  1  6
 25 26  1  0
 25 27  1  0
 25 28  1  0
 13  4  1  0
 24 15  1  0
 12  7  1  0
 24 18  1  0
M  END
>  <AAScore>  (1) 
1700.677001335752

>  <RootName>  (1) 
./4ZLY/04_DeltaGEst/trajectory_02/rank_00/lead_0247

$$$$
