confid_3
     RDKit          3D

 28 30  0  0  0  0  0  0  0  0999 V2000
   24.5700   26.8800   35.5900 N   0  0  0  0  0  0  0  0  0  0  0  0
   25.5000   26.4000   34.6900 C   0  0  0  0  0  0  0  0  0  0  0  0
   25.1700   25.5200   33.9100 O   0  0  0  0  0  0  0  0  0  0  0  0
   26.8400   27.0200   34.7400 C   0  0  0  0  0  0  0  0  0  0  0  0
   27.3800   27.2800   35.9400 N   0  0  0  0  0  0  0  0  0  0  0  0
   28.6200   27.7400   36.0300 N   0  0  0  0  0  0  0  0  0  0  0  0
   29.3800   28.0000   34.9600 C   0  0  0  0  0  0  0  0  0  0  0  0
   30.6700   28.5000   35.1300 C   0  0  0  0  0  0  0  0  0  0  0  0
   31.5400   28.6100   34.0300 C   0  0  0  0  0  0  0  0  0  0  0  0
   31.0900   28.2200   32.7700 C   0  0  0  0  0  0  0  0  0  0  0  0
   29.8000   27.7000   32.6000 C   0  0  0  0  0  0  0  0  0  0  0  0
   28.9600   27.5500   33.7100 C   0  0  0  0  0  0  0  0  0  0  0  0
   27.6600   27.0300   33.5900 C   0  0  0  0  0  0  0  0  0  0  0  0
   27.1600   26.7400   32.3400 N   0  0  0  0  0  0  0  0  0  0  0  0
   33.1502   29.2872   34.2398 S   0  0  0  0  0  6  0  0  0  0  0  0
   34.0463   28.8322   33.1209 O   0  0  0  0  0  0  0  0  0  0  0  0
   33.7290   28.8133   35.5432 O   0  0  0  0  0  0  0  0  0  0  0  0
   33.0110   31.0742   34.2604 C   0  0  1  0  0  0  0  0  0  0  0  0
   34.3321   31.8030   34.0718 C   0  0  0  0  0  0  0  0  0  0  0  0
   33.8927   32.4490   32.8187 N   0  0  0  0  0  0  0  0  0  0  0  0
   34.7291   32.0703   31.6536 C   0  0  0  0  0  0  0  0  0  0  0  0
   36.1132   32.7294   31.7655 C   0  0  0  0  0  0  0  0  0  0  0  0
   34.0675   32.5399   30.3478 C   0  0  0  0  0  0  0  0  0  0  0  0
   32.6400   31.6771   32.9102 C   0  0  2  0  0  0  0  0  0  0  0  0
   31.3466   32.5353   32.8896 C   0  0  0  0  0  0  0  0  0  0  0  0
   31.3452   33.9806   33.4618 C   0  0  0  0  0  0  0  0  0  0  0  0
   32.2324   34.9606   32.6806 C   0  0  0  0  0  0  0  0  0  0  0  0
   31.6138   34.0585   34.9673 C   0  0  0  0  0  0  0  0  0  0  0  0
  1  2  1  0
  2  3  2  0
  2  4  1  0
  4  5  2  0
  5  6  1  0
  6  7  2  0
  7  8  1  0
  8  9  2  0
  9 10  1  0
 10 11  2  0
 11 12  1  0
 12 13  2  0
 13 14  1  0
  9 15  1  0
 15 16  2  0
 15 17  2  0
 18 15  1  6
 18 19  1  0
 19 20  1  0
 20 21  1  0
 21 22  1  0
 21 23  1  0
 20 24  1  0
 24 25  1  1
 25 26  1  0
 26 27  1  0
 26 28  1  0
 13  4  1  0
 24 18  1  0
 12  7  1  0
M  END
>  <AAScore>  (1) 
-3.296902201349704

>  <RootName>  (1) 
./4ZLY/04_DeltaGEst/trajectory_05/rank_01/lead_0310

$$$$
