confid_4
     RDKit          3D

 26 29  0  0  0  0  0  0  0  0999 V2000
   25.3300   26.2600   34.7600 N   0  0  0  0  0  0  0  0  0  0  0  0
   26.1200   25.9200   33.6900 C   0  0  0  0  0  0  0  0  0  0  0  0
   25.6300   25.1100   32.9400 O   0  0  0  0  0  0  0  0  0  0  0  0
   27.5200   26.3800   33.4600 C   0  0  0  0  0  0  0  0  0  0  0  0
   28.1600   26.6300   34.6100 N   0  0  0  0  0  0  0  0  0  0  0  0
   29.4800   26.8500   34.5700 N   0  0  0  0  0  0  0  0  0  0  0  0
   30.1900   26.7800   33.4400 C   0  0  0  0  0  0  0  0  0  0  0  0
   31.5600   27.0500   33.5000 C   0  0  0  0  0  0  0  0  0  0  0  0
   32.2700   27.2400   32.3100 C   0  0  0  0  0  0  0  0  0  0  0  0
   31.6100   27.2500   31.0800 C   0  0  0  0  0  0  0  0  0  0  0  0
   30.2700   26.8700   31.0600 C   0  0  0  0  0  0  0  0  0  0  0  0
   29.5100   26.6900   32.2300 C   0  0  0  0  0  0  0  0  0  0  0  0
   28.1400   26.4100   32.2000 C   0  0  0  0  0  0  0  0  0  0  0  0
   27.4300   26.1300   31.0500 N   0  0  0  0  0  0  0  0  0  0  0  0
   23.9039   26.0807   34.8485 C   0  0  0  0  0  0  0  0  0  0  0  0
   23.2745   26.3268   36.0635 N   0  0  0  0  0  0  0  0  0  0  0  0
   21.9182   26.2033   36.2508 C   0  0  0  0  0  0  0  0  0  0  0  0
   21.2018   25.8199   35.1445 C   0  0  0  0  0  0  0  0  0  0  0  0
   19.9100   25.5057   34.6051 O   0  0  0  0  0  0  0  0  0  0  0  0
   20.5624   25.2908   33.3959 C   0  0  2  0  0  0  0  0  0  0  0  0
   20.4199   23.8402   32.9187 C   0  0  0  0  0  0  0  0  0  0  0  0
   19.1064   23.6051   32.5568 F   0  0  0  0  0  0  0  0  0  0  0  0
   20.7751   22.9526   33.9211 F   0  0  0  0  0  0  0  0  0  0  0  0
   21.2317   23.6300   31.8186 F   0  0  0  0  0  0  0  0  0  0  0  0
   21.8498   25.5866   33.9427 C   0  0  0  0  0  0  0  0  0  0  0  0
   23.1727   25.7040   33.7396 N   0  0  0  0  0  0  0  0  0  0  0  0
  1  2  1  0
  2  3  2  0
  2  4  1  0
  4  5  2  0
  5  6  1  0
  6  7  2  0
  7  8  1  0
  8  9  2  0
  9 10  1  0
 10 11  2  0
 11 12  1  0
 12 13  2  0
 13 14  1  0
  1 15  1  0
 15 16  2  0
 16 17  1  0
 17 18  2  0
 18 19  1  0
 19 20  1  0
 20 21  1  1
 21 22  1  0
 21 23  1  0
 21 24  1  0
 20 25  1  0
 25 26  2  0
 13  4  1  0
 26 15  1  0
 12  7  1  0
 25 18  1  0
M  END
>  <AAScore>  (1) 
925.6427407129954

>  <RootName>  (1) 
./4ZLY/04_DeltaGEst/trajectory_03/rank_00/lead_0329

$$$$
