confid_4
     RDKit          3D

 27 30  0  0  0  0  0  0  0  0999 V2000
   24.2000   26.2400   35.6900 N   0  0  0  0  0  0  0  0  0  0  0  0
   24.8500   26.2800   34.4800 C   0  0  0  0  0  0  0  0  0  0  0  0
   24.3100   25.7400   33.5400 O   0  0  0  0  0  0  0  0  0  0  0  0
   26.1800   26.9700   34.4700 C   0  0  0  0  0  0  0  0  0  0  0  0
   26.6500   27.6000   35.5500 N   0  0  0  0  0  0  0  0  0  0  0  0
   27.7900   28.2700   35.6200 N   0  0  0  0  0  0  0  0  0  0  0  0
   28.5400   28.3000   34.5100 C   0  0  0  0  0  0  0  0  0  0  0  0
   29.7700   28.9400   34.5600 C   0  0  0  0  0  0  0  0  0  0  0  0
   30.7000   28.8900   33.5000 C   0  0  0  0  0  0  0  0  0  0  0  0
   30.3700   28.1400   32.3700 C   0  0  0  0  0  0  0  0  0  0  0  0
   29.1200   27.5200   32.2800 C   0  0  0  0  0  0  0  0  0  0  0  0
   28.2100   27.6100   33.3300 C   0  0  0  0  0  0  0  0  0  0  0  0
   26.9700   26.9700   33.3100 C   0  0  0  0  0  0  0  0  0  0  0  0
   26.5300   26.2400   32.2200 N   0  0  0  0  0  0  0  0  0  0  0  0
   22.8261   25.7515   35.8380 C   0  0  0  0  0  0  0  0  0  0  0  0
   21.8927   26.6048   35.0745 N   0  0  0  0  0  0  0  0  0  0  0  0
   20.5641   25.9829   35.0316 C   0  0  0  0  0  0  0  0  0  0  0  0
   19.6310   26.7612   34.0996 C   0  0  0  0  0  0  0  0  0  0  0  0
   19.8031   28.2315   34.1371 N   0  0  0  0  0  0  0  0  0  0  0  0
   20.9511   28.8643   34.8242 C   0  0  0  0  0  0  0  0  0  0  0  0
   21.7526   27.9181   35.7175 C   0  0  0  0  0  0  0  0  0  0  0  0
   18.9108   29.0688   33.3348 C   0  0  0  0  0  0  0  0  0  0  0  0
   19.1052   30.4696   33.2373 C   0  0  0  0  0  0  0  0  0  0  0  0
   18.2491   31.2653   32.4706 C   0  0  0  0  0  0  0  0  0  0  0  0
   17.1849   30.6898   31.7805 C   0  0  0  0  0  0  0  0  0  0  0  0
   16.9751   29.3147   31.8511 C   0  0  0  0  0  0  0  0  0  0  0  0
   17.8252   28.5098   32.6149 C   0  0  0  0  0  0  0  0  0  0  0  0
  1  2  1  0
  2  3  2  0
  2  4  1  0
  4  5  2  0
  5  6  1  0
  6  7  2  0
  7  8  1  0
  8  9  2  0
  9 10  1  0
 10 11  2  0
 11 12  1  0
 12 13  2  0
 13 14  1  0
  1 15  1  0
 15 16  1  0
 16 17  1  0
 17 18  1  0
 18 19  1  0
 19 20  1  0
 20 21  1  0
 19 22  1  0
 22 23  2  0
 23 24  1  0
 24 25  2  0
 25 26  1  0
 26 27  2  0
 13  4  1  0
 21 16  1  0
 27 22  1  0
 12  7  1  0
M  END
>  <AAScore>  (1) 
148.13655593034088

>  <RootName>  (1) 
./4ZLY/04_DeltaGEst/trajectory_04/rank_00/lead_0024

$$$$
