confid_2
     RDKit          3D

 28 31  0  0  0  0  0  0  0  0999 V2000
   24.6900   26.1200   35.5300 N   0  0  0  0  0  0  0  0  0  0  0  0
   25.6600   25.6700   34.6600 C   0  0  0  0  0  0  0  0  0  0  0  0
   25.2400   25.0100   33.7200 O   0  0  0  0  0  0  0  0  0  0  0  0
   27.0300   26.2200   34.8800 C   0  0  0  0  0  0  0  0  0  0  0  0
   27.3500   26.7300   36.0700 N   0  0  0  0  0  0  0  0  0  0  0  0
   28.5700   27.1800   36.3300 N   0  0  0  0  0  0  0  0  0  0  0  0
   29.5300   27.1100   35.3900 C   0  0  0  0  0  0  0  0  0  0  0  0
   30.8300   27.5700   35.6500 C   0  0  0  0  0  0  0  0  0  0  0  0
   31.8500   27.5400   34.6900 C   0  0  0  0  0  0  0  0  0  0  0  0
   31.5100   27.1200   33.4000 C   0  0  0  0  0  0  0  0  0  0  0  0
   30.2200   26.6300   33.1100 C   0  0  0  0  0  0  0  0  0  0  0  0
   29.2400   26.6600   34.1000 C   0  0  0  0  0  0  0  0  0  0  0  0
   27.9300   26.2600   33.8100 C   0  0  0  0  0  0  0  0  0  0  0  0
   27.5200   25.7100   32.6100 N   0  0  0  0  0  0  0  0  0  0  0  0
   31.1788   28.0494   37.0067 C   0  0  0  0  0  0  0  0  0  0  0  0
   31.0322   27.3174   38.1734 C   0  0  0  0  0  0  0  0  0  0  0  0
   31.5380   28.1079   39.1848 C   0  0  0  0  0  0  0  0  0  0  0  0
   31.6954   27.7095   40.6173 C   0  0  0  0  0  0  0  0  0  0  0  0
   31.8989   28.8842   41.4779 N   0  0  0  0  0  0  0  0  0  0  0  0
   32.4061   30.1295   40.9490 C   0  0  0  0  0  0  0  0  0  0  0  0
   32.6517   31.0930   41.7247 O   0  0  0  0  0  0  0  0  0  0  0  0
   32.6817   30.2969   39.4799 C   0  0  0  0  0  0  0  0  0  0  0  0
   31.9814   29.2795   38.6964 N   0  0  0  0  0  0  0  0  0  0  0  0
   31.7742   29.2583   37.3599 C   0  0  0  0  0  0  0  0  0  0  0  0
   32.1120   30.3921   36.4311 C   0  0  0  0  0  0  0  0  0  0  0  0
   33.4719   30.6366   36.4692 F   0  0  0  0  0  0  0  0  0  0  0  0
   31.4280   31.5300   36.8152 F   0  0  0  0  0  0  0  0  0  0  0  0
   31.7099   28.7436   42.9234 C   0  0  0  0  0  0  0  0  0  0  0  0
  1  2  1  0
  2  3  2  0
  2  4  1  0
  4  5  2  0
  5  6  1  0
  6  7  2  0
  7  8  1  0
  8  9  2  0
  9 10  1  0
 10 11  2  0
 11 12  1  0
 12 13  2  0
 13 14  1  0
  8 15  1  0
 15 16  1  0
 16 17  2  0
 17 18  1  0
 18 19  1  0
 19 20  1  0
 20 21  2  0
 20 22  1  0
 22 23  1  0
 23 24  1  0
 24 25  1  0
 25 26  1  0
 25 27  1  0
 19 28  1  0
 13  4  1  0
 24 15  2  0
 12  7  1  0
 23 17  1  0
M  END
>  <AAScore>  (1) 
15.361785228977864

>  <RootName>  (1) 
./4ZLY/04_DeltaGEst/trajectory_02/rank_01/lead_0408

$$$$
