confid_9
     RDKit          3D

 27 30  0  0  0  0  0  0  0  0999 V2000
   24.2000   26.2400   35.6900 N   0  0  0  0  0  0  0  0  0  0  0  0
   24.8500   26.2800   34.4800 C   0  0  0  0  0  0  0  0  0  0  0  0
   24.3100   25.7400   33.5400 O   0  0  0  0  0  0  0  0  0  0  0  0
   26.1800   26.9700   34.4700 C   0  0  0  0  0  0  0  0  0  0  0  0
   26.6500   27.6000   35.5500 N   0  0  0  0  0  0  0  0  0  0  0  0
   27.7900   28.2700   35.6200 N   0  0  0  0  0  0  0  0  0  0  0  0
   28.5400   28.3000   34.5100 C   0  0  0  0  0  0  0  0  0  0  0  0
   29.7700   28.9400   34.5600 C   0  0  0  0  0  0  0  0  0  0  0  0
   30.7000   28.8900   33.5000 C   0  0  0  0  0  0  0  0  0  0  0  0
   30.3700   28.1400   32.3700 C   0  0  0  0  0  0  0  0  0  0  0  0
   29.1200   27.5200   32.2800 C   0  0  0  0  0  0  0  0  0  0  0  0
   28.2100   27.6100   33.3300 C   0  0  0  0  0  0  0  0  0  0  0  0
   26.9700   26.9700   33.3100 C   0  0  0  0  0  0  0  0  0  0  0  0
   26.5300   26.2400   32.2200 N   0  0  0  0  0  0  0  0  0  0  0  0
   30.1353   29.6736   35.7408 N   0  0  0  0  0  0  0  0  0  0  0  0
   31.1844   29.1252   36.6176 C   0  0  0  0  0  0  0  0  0  0  0  0
   31.5455   30.0780   37.7664 C   0  0  0  0  0  0  0  0  0  0  0  0
   30.3063   30.6832   38.3666 C   0  0  0  0  0  0  0  0  0  0  0  0
   30.1914   30.8628   39.7511 C   0  0  0  0  0  0  0  0  0  0  0  0
   29.0541   31.4694   40.2857 C   0  0  0  0  0  0  0  0  0  0  0  0
   28.9443   31.6352   41.6270 F   0  0  0  0  0  0  0  0  0  0  0  0
   28.0338   31.9164   39.4427 C   0  0  0  0  0  0  0  0  0  0  0  0
   28.1402   31.7596   38.0462 C   0  0  0  0  0  0  0  0  0  0  0  0
   29.2823   31.1281   37.5118 C   0  0  0  0  0  0  0  0  0  0  0  0
   29.4717   30.9553   36.0255 C   0  0  0  0  0  0  0  0  0  0  0  0
   27.1396   32.2169   37.1727 O   0  0  0  0  0  0  0  0  0  0  0  0
   25.9378   32.8595   37.5851 C   0  0  0  0  0  0  0  0  0  0  0  0
  1  2  1  0
  2  3  2  0
  2  4  1  0
  4  5  2  0
  5  6  1  0
  6  7  2  0
  7  8  1  0
  8  9  2  0
  9 10  1  0
 10 11  2  0
 11 12  1  0
 12 13  2  0
 13 14  1  0
  8 15  1  0
 15 16  1  0
 16 17  1  0
 17 18  1  0
 18 19  2  0
 19 20  1  0
 20 21  1  0
 20 22  2  0
 22 23  1  0
 23 24  2  0
 24 25  1  0
 23 26  1  0
 26 27  1  0
 13  4  1  0
 25 15  1  0
 12  7  1  0
 24 18  1  0
M  END
>  <AAScore>  (1) 
-8.762665482439663

>  <RootName>  (1) 
./4ZLY/04_DeltaGEst/trajectory_04/rank_01/lead_0302

$$$$
