confid_3
     RDKit          3D

 27 30  0  0  0  0  0  0  0  0999 V2000
   24.2000   26.2400   35.6900 N   0  0  0  0  0  0  0  0  0  0  0  0
   24.8500   26.2800   34.4800 C   0  0  0  0  0  0  0  0  0  0  0  0
   24.3100   25.7400   33.5400 O   0  0  0  0  0  0  0  0  0  0  0  0
   26.1800   26.9700   34.4700 C   0  0  0  0  0  0  0  0  0  0  0  0
   26.6500   27.6000   35.5500 N   0  0  0  0  0  0  0  0  0  0  0  0
   27.7900   28.2700   35.6200 N   0  0  0  0  0  0  0  0  0  0  0  0
   28.5400   28.3000   34.5100 C   0  0  0  0  0  0  0  0  0  0  0  0
   29.7700   28.9400   34.5600 C   0  0  0  0  0  0  0  0  0  0  0  0
   30.7000   28.8900   33.5000 C   0  0  0  0  0  0  0  0  0  0  0  0
   30.3700   28.1400   32.3700 C   0  0  0  0  0  0  0  0  0  0  0  0
   29.1200   27.5200   32.2800 C   0  0  0  0  0  0  0  0  0  0  0  0
   28.2100   27.6100   33.3300 C   0  0  0  0  0  0  0  0  0  0  0  0
   26.9700   26.9700   33.3100 C   0  0  0  0  0  0  0  0  0  0  0  0
   26.5300   26.2400   32.2200 N   0  0  0  0  0  0  0  0  0  0  0  0
   24.8169   25.7733   36.9026 C   0  0  0  0  0  0  0  0  0  0  0  0
   24.7012   26.4467   38.0669 N   0  0  0  0  0  0  0  0  0  0  0  0
   25.3834   25.6955   38.9507 C   0  0  0  0  0  0  0  0  0  0  0  0
   25.8782   24.5757   38.3181 C   0  0  0  0  0  0  0  0  0  0  0  0
   26.5508   23.4190   39.0302 C   0  0  0  0  0  0  0  0  0  0  0  0
   26.1283   22.1563   38.5580 O   0  0  0  0  0  0  0  0  0  0  0  0
   24.7615   21.9008   38.8448 C   0  0  2  0  0  0  0  0  0  0  0  0
   24.6424   21.1626   40.1834 C   0  0  0  0  0  0  0  0  0  0  0  0
   24.1824   21.0461   37.6975 C   0  0  0  0  0  0  0  0  0  0  0  0
   24.7799   21.3548   36.4474 O   0  0  0  0  0  0  0  0  0  0  0  0
   24.4276   22.6476   35.9854 C   0  0  0  0  0  0  0  0  0  0  0  0
   25.6670   23.5606   36.0088 C   0  0  0  0  0  0  0  0  0  0  0  0
   25.5272   24.6235   37.0134 N   0  0  0  0  0  0  0  0  0  0  0  0
  1  2  1  0
  2  3  2  0
  2  4  1  0
  4  5  2  0
  5  6  1  0
  6  7  2  0
  7  8  1  0
  8  9  2  0
  9 10  1  0
 10 11  2  0
 11 12  1  0
 12 13  2  0
 13 14  1  0
  1 15  1  0
 15 16  2  0
 16 17  1  0
 17 18  2  0
 18 19  1  0
 19 20  1  0
 20 21  1  0
 21 22  1  1
 21 23  1  0
 23 24  1  0
 24 25  1  0
 25 26  1  0
 26 27  1  0
 13  4  1  0
 27 15  1  0
 12  7  1  0
 27 18  1  0
M  END
>  <AAScore>  (1) 
1815.5661422955536

>  <RootName>  (1) 
./4ZLY/04_DeltaGEst/trajectory_04/rank_00/lead_0073

$$$$
