confid_14
     RDKit          3D

 27 30  0  0  0  0  0  0  0  0999 V2000
   24.4800   26.1000   36.1300 N   0  0  0  0  0  0  0  0  0  0  0  0
   25.2500   26.2500   34.9900 C   0  0  0  0  0  0  0  0  0  0  0  0
   24.7400   25.7600   33.9900 O   0  0  0  0  0  0  0  0  0  0  0  0
   26.5900   26.8900   34.9600 C   0  0  0  0  0  0  0  0  0  0  0  0
   27.0600   27.2400   36.1600 N   0  0  0  0  0  0  0  0  0  0  0  0
   28.3000   27.7100   36.2400 N   0  0  0  0  0  0  0  0  0  0  0  0
   29.0500   27.9600   35.1500 C   0  0  0  0  0  0  0  0  0  0  0  0
   30.3400   28.4900   35.2600 C   0  0  0  0  0  0  0  0  0  0  0  0
   31.1100   28.8200   34.1400 C   0  0  0  0  0  0  0  0  0  0  0  0
   30.5200   28.6700   32.8800 C   0  0  0  0  0  0  0  0  0  0  0  0
   29.2900   28.0200   32.7700 C   0  0  0  0  0  0  0  0  0  0  0  0
   28.5200   27.7100   33.8900 C   0  0  0  0  0  0  0  0  0  0  0  0
   27.2700   27.0800   33.7600 C   0  0  0  0  0  0  0  0  0  0  0  0
   26.7500   26.8800   32.4900 N   0  0  0  0  0  0  0  0  0  0  0  0
   23.2688   25.3301   36.1880 C   0  0  0  0  0  0  0  0  0  0  0  0
   22.0963   25.8721   36.5741 N   0  0  0  0  0  0  0  0  0  0  0  0
   21.2224   24.8519   36.4965 C   0  0  0  0  0  0  0  0  0  0  0  0
   21.8781   23.7077   36.0927 C   0  0  0  0  0  0  0  0  0  0  0  0
   21.1751   22.4049   35.7953 C   0  0  0  0  0  0  0  0  0  0  0  0
   22.0760   21.1694   35.8253 C   0  0  0  0  0  0  0  0  0  0  0  0
   22.9690   21.1549   34.6592 N   0  0  0  0  0  0  0  0  0  0  0  0
   24.0124   22.1419   34.5424 C   0  0  0  0  0  0  0  0  0  0  0  0
   24.6940   22.2253   33.4841 O   0  0  0  0  0  0  0  0  0  0  0  0
   24.3000   23.0869   35.6688 C   0  0  0  0  0  0  0  0  0  0  0  0
   23.1803   24.0132   35.8775 N   0  0  0  0  0  0  0  0  0  0  0  0
   22.7753   20.1538   33.6004 C   0  0  0  0  0  0  0  0  0  0  0  0
   23.8122   19.0428   33.7214 C   0  0  0  0  0  0  0  0  0  0  0  0
  1  2  1  0
  2  3  2  0
  2  4  1  0
  4  5  2  0
  5  6  1  0
  6  7  2  0
  7  8  1  0
  8  9  2  0
  9 10  1  0
 10 11  2  0
 11 12  1  0
 12 13  2  0
 13 14  1  0
  1 15  1  0
 15 16  2  0
 16 17  1  0
 17 18  2  0
 18 19  1  0
 19 20  1  0
 20 21  1  0
 21 22  1  0
 22 23  2  0
 22 24  1  0
 24 25  1  0
 21 26  1  0
 26 27  1  0
 13  4  1  0
 25 15  1  0
 12  7  1  0
 25 18  1  0
M  END
>  <AAScore>  (1) 
2236.0249843277697

>  <RootName>  (1) 
./4ZLY/04_DeltaGEst/trajectory_00/rank_00/lead_0392

$$$$
