confid_2
     RDKit          3D

 27 30  0  0  0  0  0  0  0  0999 V2000
   24.5500   26.3900   36.2500 N   0  0  0  0  0  0  0  0  0  0  0  0
   25.6000   26.1300   35.4000 C   0  0  0  0  0  0  0  0  0  0  0  0
   25.4300   25.4300   34.4200 O   0  0  0  0  0  0  0  0  0  0  0  0
   26.9800   26.6300   35.7100 C   0  0  0  0  0  0  0  0  0  0  0  0
   27.3200   26.8200   36.9800 N   0  0  0  0  0  0  0  0  0  0  0  0
   28.4700   27.4000   37.3100 N   0  0  0  0  0  0  0  0  0  0  0  0
   29.4000   27.6300   36.3700 C   0  0  0  0  0  0  0  0  0  0  0  0
   30.6600   28.0500   36.8000 C   0  0  0  0  0  0  0  0  0  0  0  0
   31.5700   28.3600   35.7800 C   0  0  0  0  0  0  0  0  0  0  0  0
   31.3700   28.1000   34.4300 C   0  0  0  0  0  0  0  0  0  0  0  0
   30.1200   27.5900   34.0500 C   0  0  0  0  0  0  0  0  0  0  0  0
   29.1500   27.3400   35.0300 C   0  0  0  0  0  0  0  0  0  0  0  0
   27.8800   26.8900   34.6600 C   0  0  0  0  0  0  0  0  0  0  0  0
   27.4800   26.6100   33.3700 N   0  0  0  0  0  0  0  0  0  0  0  0
   23.2361   25.7384   36.1260 C   0  0  0  0  0  0  0  0  0  0  0  0
   23.3219   24.2695   36.5755 C   0  0  0  0  0  0  0  0  0  0  0  0
   23.6543   24.1421   38.0798 C   0  0  0  0  0  0  0  0  0  0  0  0
   23.4499   25.4110   38.8154 N   0  0  0  0  0  0  0  0  0  0  0  0
   23.5373   25.1817   40.2701 C   0  0  0  0  0  0  0  0  0  0  0  0
   23.8213   26.4744   40.9815 C   0  0  0  0  0  0  0  0  0  0  0  0
   24.9605   27.1734   40.7883 N   0  0  0  0  0  0  0  0  0  0  0  0
   24.8198   28.2615   41.5725 C   0  0  0  0  0  0  0  0  0  0  0  0
   23.6073   28.2098   42.2231 C   0  0  0  0  0  0  0  0  0  0  0  0
   22.9797   27.0840   41.8453 N   0  0  0  0  0  0  0  0  0  0  0  0
   21.6684   26.6289   42.2981 C   0  0  0  0  0  0  0  0  0  0  0  0
   22.1588   26.0255   38.4439 C   0  0  0  0  0  0  0  0  0  0  0  0
   22.1743   26.4794   36.9694 C   0  0  0  0  0  0  0  0  0  0  0  0
  1  2  1  0
  2  3  2  0
  2  4  1  0
  4  5  2  0
  5  6  1  0
  6  7  2  0
  7  8  1  0
  8  9  2  0
  9 10  1  0
 10 11  2  0
 11 12  1  0
 12 13  2  0
 13 14  1  0
  1 15  1  0
 15 16  1  0
 16 17  1  0
 17 18  1  0
 18 19  1  0
 19 20  1  0
 20 21  2  0
 21 22  1  0
 22 23  2  0
 23 24  1  0
 24 25  1  0
 18 26  1  0
 26 27  1  0
 13  4  1  0
 27 15  1  0
 12  7  1  0
 24 20  1  0
M  END
>  <AAScore>  (1) 
150.5994737719682

>  <RootName>  (1) 
./4ZLY/04_DeltaGEst/trajectory_01/rank_00/lead_0368

$$$$
