confid_3
     RDKit          3D

 27 31  0  0  0  0  0  0  0  0999 V2000
   24.2000   26.2400   35.6900 N   0  0  0  0  0  0  0  0  0  0  0  0
   24.8500   26.2800   34.4800 C   0  0  0  0  0  0  0  0  0  0  0  0
   24.3100   25.7400   33.5400 O   0  0  0  0  0  0  0  0  0  0  0  0
   26.1800   26.9700   34.4700 C   0  0  0  0  0  0  0  0  0  0  0  0
   26.6500   27.6000   35.5500 N   0  0  0  0  0  0  0  0  0  0  0  0
   27.7900   28.2700   35.6200 N   0  0  0  0  0  0  0  0  0  0  0  0
   28.5400   28.3000   34.5100 C   0  0  0  0  0  0  0  0  0  0  0  0
   29.7700   28.9400   34.5600 C   0  0  0  0  0  0  0  0  0  0  0  0
   30.7000   28.8900   33.5000 C   0  0  0  0  0  0  0  0  0  0  0  0
   30.3700   28.1400   32.3700 C   0  0  0  0  0  0  0  0  0  0  0  0
   29.1200   27.5200   32.2800 C   0  0  0  0  0  0  0  0  0  0  0  0
   28.2100   27.6100   33.3300 C   0  0  0  0  0  0  0  0  0  0  0  0
   26.9700   26.9700   33.3100 C   0  0  0  0  0  0  0  0  0  0  0  0
   26.5300   26.2400   32.2200 N   0  0  0  0  0  0  0  0  0  0  0  0
   22.7799   26.0828   35.8719 C   0  0  0  0  0  0  0  0  0  0  0  0
   22.0219   25.7546   34.8612 N   0  0  0  0  0  0  0  0  0  0  0  0
   20.6060   25.6390   34.9555 C   0  0  0  0  0  0  0  0  0  0  0  0
   19.9416   26.7635   35.1014 C   0  0  0  0  0  0  0  0  0  0  0  0
   20.0242   28.2789   35.1133 C   0  0  2  0  0  0  0  0  0  0  0  0
   20.9992   28.7338   36.2169 C   0  0  0  0  0  0  0  0  0  0  0  0
   20.8479   27.9966   37.4779 N   0  0  0  0  0  0  0  0  0  0  0  0
   20.1792   28.5995   38.6217 C   0  0  0  0  0  0  0  0  0  0  0  0
   20.1136   27.5148   39.7029 C   0  0  0  0  0  0  0  0  0  0  0  0
   21.1242   26.4389   39.3019 C   0  0  0  0  0  0  0  0  0  0  0  0
   21.4446   26.7595   37.8923 C   0  0  0  0  0  0  0  0  0  0  0  0
   22.2819   26.0122   37.2210 N   0  0  0  0  0  0  0  0  0  0  0  0
   18.7541   27.6798   35.3961 C   0  0  0  0  0  0  0  0  0  0  0  0
  1  2  1  0
  2  3  2  0
  2  4  1  0
  4  5  2  0
  5  6  1  0
  6  7  2  0
  7  8  1  0
  8  9  2  0
  9 10  1  0
 10 11  2  0
 11 12  1  0
 12 13  2  0
 13 14  1  0
  1 15  1  0
 15 16  2  0
 16 17  1  0
 17 18  2  0
 18 19  1  0
 19 20  1  1
 20 21  1  0
 21 22  1  0
 22 23  1  0
 23 24  1  0
 24 25  1  0
 25 26  2  0
 19 27  1  0
 13  4  1  0
 26 15  1  0
 12  7  1  0
 27 18  1  0
 25 21  1  0
M  END
>  <AAScore>  (1) 
1077.973703948188

>  <RootName>  (1) 
./4ZLY/04_DeltaGEst/trajectory_04/rank_00/lead_0417

$$$$
