confid_2
     RDKit          3D

 28 32  0  0  0  0  0  0  0  0999 V2000
   24.6900   26.1200   35.5300 N   0  0  0  0  0  0  0  0  0  0  0  0
   25.6600   25.6700   34.6600 C   0  0  0  0  0  0  0  0  0  0  0  0
   25.2400   25.0100   33.7200 O   0  0  0  0  0  0  0  0  0  0  0  0
   27.0300   26.2200   34.8800 C   0  0  0  0  0  0  0  0  0  0  0  0
   27.3500   26.7300   36.0700 N   0  0  0  0  0  0  0  0  0  0  0  0
   28.5700   27.1800   36.3300 N   0  0  0  0  0  0  0  0  0  0  0  0
   29.5300   27.1100   35.3900 C   0  0  0  0  0  0  0  0  0  0  0  0
   30.8300   27.5700   35.6500 C   0  0  0  0  0  0  0  0  0  0  0  0
   31.8500   27.5400   34.6900 C   0  0  0  0  0  0  0  0  0  0  0  0
   31.5100   27.1200   33.4000 C   0  0  0  0  0  0  0  0  0  0  0  0
   30.2200   26.6300   33.1100 C   0  0  0  0  0  0  0  0  0  0  0  0
   29.2400   26.6600   34.1000 C   0  0  0  0  0  0  0  0  0  0  0  0
   27.9300   26.2600   33.8100 C   0  0  0  0  0  0  0  0  0  0  0  0
   27.5200   25.7100   32.6100 N   0  0  0  0  0  0  0  0  0  0  0  0
   31.1528   28.0540   36.9613 N   0  0  0  0  0  0  0  0  0  0  0  0
   31.5544   29.4210   37.2281 C   0  0  0  0  0  0  0  0  0  0  0  0
   32.0408   29.4173   38.6716 C   0  0  0  0  0  0  0  0  0  0  0  0
   31.4384   28.1538   39.3255 C   0  0  1  0  0  0  0  0  0  0  0  0
   31.2335   27.1989   38.1316 C   0  0  0  0  0  0  0  0  0  0  0  0
   32.4009   27.6332   40.2366 O   0  0  0  0  0  0  0  0  0  0  0  0
   31.8915   26.6027   41.0612 C   0  0  0  0  0  0  0  0  0  0  0  0
   31.3986   27.1932   42.4032 C   0  0  0  0  0  0  0  0  0  0  0  0
   31.3664   26.1772   43.5296 C   0  0  0  0  0  0  0  0  0  0  0  0
   32.3613   26.8515   44.2624 O   0  0  0  0  0  0  0  0  0  0  0  0
   32.4588   27.8468   43.2721 C   0  0  0  0  0  0  0  0  0  0  0  0
   30.1752   27.9090   42.3451 O   0  0  0  0  0  0  0  0  0  0  0  0
   30.2476   29.0008   41.4474 C   0  0  0  0  0  0  0  0  0  0  0  0
   30.0748   28.5227   39.9988 C   0  0  0  0  0  0  0  0  0  0  0  0
  1  2  1  0
  2  3  2  0
  2  4  1  0
  4  5  2  0
  5  6  1  0
  6  7  2  0
  7  8  1  0
  8  9  2  0
  9 10  1  0
 10 11  2  0
 11 12  1  0
 12 13  2  0
 13 14  1  0
  8 15  1  0
 15 16  1  0
 16 17  1  0
 18 17  1  6
 18 19  1  0
 18 20  1  0
 20 21  1  0
 21 22  1  0
 22 23  1  0
 23 24  1  0
 24 25  1  0
 22 26  1  0
 26 27  1  0
 27 28  1  0
 13  4  1  0
 19 15  1  0
 25 22  1  0
 12  7  1  0
 28 18  1  0
M  END
>  <AAScore>  (1) 
154.80485188194797

>  <RootName>  (1) 
./4ZLY/04_DeltaGEst/trajectory_02/rank_01/lead_0302

$$$$
