confid_1
     RDKit          3D

 27 30  0  0  0  0  0  0  0  0999 V2000
   24.6900   26.1200   35.5300 N   0  0  0  0  0  0  0  0  0  0  0  0
   25.6600   25.6700   34.6600 C   0  0  0  0  0  0  0  0  0  0  0  0
   25.2400   25.0100   33.7200 O   0  0  0  0  0  0  0  0  0  0  0  0
   27.0300   26.2200   34.8800 C   0  0  0  0  0  0  0  0  0  0  0  0
   27.3500   26.7300   36.0700 N   0  0  0  0  0  0  0  0  0  0  0  0
   28.5700   27.1800   36.3300 N   0  0  0  0  0  0  0  0  0  0  0  0
   29.5300   27.1100   35.3900 C   0  0  0  0  0  0  0  0  0  0  0  0
   30.8300   27.5700   35.6500 C   0  0  0  0  0  0  0  0  0  0  0  0
   31.8500   27.5400   34.6900 C   0  0  0  0  0  0  0  0  0  0  0  0
   31.5100   27.1200   33.4000 C   0  0  0  0  0  0  0  0  0  0  0  0
   30.2200   26.6300   33.1100 C   0  0  0  0  0  0  0  0  0  0  0  0
   29.2400   26.6600   34.1000 C   0  0  0  0  0  0  0  0  0  0  0  0
   27.9300   26.2600   33.8100 C   0  0  0  0  0  0  0  0  0  0  0  0
   27.5200   25.7100   32.6100 N   0  0  0  0  0  0  0  0  0  0  0  0
   23.3696   26.5197   35.1260 C   0  0  0  0  0  0  0  0  0  0  0  0
   22.3998   26.4339   35.9804 N   0  0  0  0  0  0  0  0  0  0  0  0
   21.0594   26.8404   35.6820 C   0  0  0  0  0  0  0  0  0  0  0  0
   20.6702   27.1630   34.4284 C   0  0  0  0  0  0  0  0  0  0  0  0
   19.1703   27.1861   34.1728 C   0  0  0  0  0  0  0  0  0  0  0  0
   18.7598   28.2952   33.2923 N   0  0  0  0  0  0  0  0  0  0  0  0
   17.3043   28.5047   33.3992 C   0  0  0  0  0  0  0  0  0  0  0  0
   19.1236   28.0106   31.8938 C   0  0  0  0  0  0  0  0  0  0  0  0
   20.5055   28.5091   31.6358 C   0  0  0  0  0  0  0  0  0  0  0  0
   21.5533   28.1175   32.2775 N   0  0  0  0  0  0  0  0  0  0  0  0
   21.6997   27.0694   33.2825 C   0  0  2  0  0  0  0  0  0  0  0  0
   21.6164   25.6821   32.6111 C   0  0  0  0  0  0  0  0  0  0  0  0
   23.1382   27.2614   33.8364 C   0  0  0  0  0  0  0  0  0  0  0  0
  1  2  1  0
  2  3  2  0
  2  4  1  0
  4  5  2  0
  5  6  1  0
  6  7  2  0
  7  8  1  0
  8  9  2  0
  9 10  1  0
 10 11  2  0
 11 12  1  0
 12 13  2  0
 13 14  1  0
  1 15  1  0
 15 16  2  0
 16 17  1  0
 17 18  2  0
 18 19  1  0
 19 20  1  0
 20 21  1  0
 20 22  1  0
 22 23  1  0
 23 24  2  0
 24 25  1  0
 25 26  1  6
 25 27  1  0
 13  4  1  0
 27 15  1  0
 12  7  1  0
 25 18  1  0
M  END
>  <AAScore>  (1) 
2006.6409595295456

>  <RootName>  (1) 
./4ZLY/04_DeltaGEst/trajectory_02/rank_00/lead_0318

$$$$
