confid_3
     RDKit          3D

 27 31  0  0  0  0  0  0  0  0999 V2000
   24.5700   26.8800   35.5900 N   0  0  0  0  0  0  0  0  0  0  0  0
   25.5000   26.4000   34.6900 C   0  0  0  0  0  0  0  0  0  0  0  0
   25.1700   25.5200   33.9100 O   0  0  0  0  0  0  0  0  0  0  0  0
   26.8400   27.0200   34.7400 C   0  0  0  0  0  0  0  0  0  0  0  0
   27.3800   27.2800   35.9400 N   0  0  0  0  0  0  0  0  0  0  0  0
   28.6200   27.7400   36.0300 N   0  0  0  0  0  0  0  0  0  0  0  0
   29.3800   28.0000   34.9600 C   0  0  0  0  0  0  0  0  0  0  0  0
   30.6700   28.5000   35.1300 C   0  0  0  0  0  0  0  0  0  0  0  0
   31.5400   28.6100   34.0300 C   0  0  0  0  0  0  0  0  0  0  0  0
   31.0900   28.2200   32.7700 C   0  0  0  0  0  0  0  0  0  0  0  0
   29.8000   27.7000   32.6000 C   0  0  0  0  0  0  0  0  0  0  0  0
   28.9600   27.5500   33.7100 C   0  0  0  0  0  0  0  0  0  0  0  0
   27.6600   27.0300   33.5900 C   0  0  0  0  0  0  0  0  0  0  0  0
   27.1600   26.7400   32.3400 N   0  0  0  0  0  0  0  0  0  0  0  0
   23.1566   26.6260   35.5068 C   0  0  0  0  0  0  0  0  0  0  0  0
   22.6251   26.3501   34.3480 N   0  0  0  0  0  0  0  0  0  0  0  0
   21.2885   25.9295   34.0453 C   0  0  0  0  0  0  0  0  0  0  0  0
   20.6574   25.1044   34.8652 C   0  0  0  0  0  0  0  0  0  0  0  0
   20.4351   24.4740   36.2334 C   0  0  2  0  0  0  0  0  0  0  0  0
   21.7747   23.9000   36.7287 C   0  0  0  0  0  0  0  0  0  0  0  0
   22.3623   24.8074   37.7325 N   0  0  0  0  0  0  0  0  0  0  0  0
   22.3755   24.4389   39.1449 C   0  0  0  0  0  0  0  0  0  0  0  0
   21.6222   25.5542   39.8857 C   0  0  0  0  0  0  0  0  0  0  0  0
   21.6056   26.7646   38.9480 C   0  0  0  0  0  0  0  0  0  0  0  0
   22.1479   26.2204   37.6854 C   0  0  0  0  0  0  0  0  0  0  0  0
   22.3529   26.9716   36.6422 N   0  0  0  0  0  0  0  0  0  0  0  0
   19.7299   23.9186   35.1222 C   0  0  0  0  0  0  0  0  0  0  0  0
  1  2  1  0
  2  3  2  0
  2  4  1  0
  4  5  2  0
  5  6  1  0
  6  7  2  0
  7  8  1  0
  8  9  2  0
  9 10  1  0
 10 11  2  0
 11 12  1  0
 12 13  2  0
 13 14  1  0
  1 15  1  0
 15 16  2  0
 16 17  1  0
 17 18  2  0
 18 19  1  0
 19 20  1  6
 20 21  1  0
 21 22  1  0
 22 23  1  0
 23 24  1  0
 24 25  1  0
 25 26  2  0
 19 27  1  0
 13  4  1  0
 26 15  1  0
 12  7  1  0
 27 18  1  0
 25 21  1  0
M  END
>  <AAScore>  (1) 
5351.005690584297

>  <RootName>  (1) 
./4ZLY/04_DeltaGEst/trajectory_05/rank_00/lead_0435

$$$$
