confid_17
     RDKit          3D

 29 33  0  0  0  0  0  0  0  0999 V2000
   25.3300   26.2600   34.7600 N   0  0  0  0  0  0  0  0  0  0  0  0
   26.1200   25.9200   33.6900 C   0  0  0  0  0  0  0  0  0  0  0  0
   25.6300   25.1100   32.9400 O   0  0  0  0  0  0  0  0  0  0  0  0
   27.5200   26.3800   33.4600 C   0  0  0  0  0  0  0  0  0  0  0  0
   28.1600   26.6300   34.6100 N   0  0  0  0  0  0  0  0  0  0  0  0
   29.4800   26.8500   34.5700 N   0  0  0  0  0  0  0  0  0  0  0  0
   30.1900   26.7800   33.4400 C   0  0  0  0  0  0  0  0  0  0  0  0
   31.5600   27.0500   33.5000 C   0  0  0  0  0  0  0  0  0  0  0  0
   32.2700   27.2400   32.3100 C   0  0  0  0  0  0  0  0  0  0  0  0
   31.6100   27.2500   31.0800 C   0  0  0  0  0  0  0  0  0  0  0  0
   30.2700   26.8700   31.0600 C   0  0  0  0  0  0  0  0  0  0  0  0
   29.5100   26.6900   32.2300 C   0  0  0  0  0  0  0  0  0  0  0  0
   28.1400   26.4100   32.2000 C   0  0  0  0  0  0  0  0  0  0  0  0
   27.4300   26.1300   31.0500 N   0  0  0  0  0  0  0  0  0  0  0  0
   27.5741   24.8943   30.3005 C   0  0  0  0  0  0  0  0  0  0  0  0
   26.9369   25.1727   28.9060 C   0  0  2  0  0  0  0  0  0  0  0  0
   26.1333   24.1440   28.3292 O   0  0  0  0  0  0  0  0  0  0  0  0
   26.4747   22.8179   28.6677 C   0  0  0  0  0  0  0  0  0  0  0  0
   27.9278   22.5023   28.5127 C   0  0  0  0  0  0  0  0  0  0  0  0
   28.4179   21.5613   29.1923 O   0  0  0  0  0  0  0  0  0  0  0  0
   28.7318   23.1291   27.5125 N   0  0  0  0  0  0  0  0  0  0  0  0
   28.8111   24.5419   27.2230 C   0  0  0  0  0  0  0  0  0  0  0  0
   29.7697   24.9327   26.2684 C   0  0  0  0  0  0  0  0  0  0  0  0
   30.0131   26.2730   25.9929 C   0  0  0  0  0  0  0  0  0  0  0  0
   29.3134   27.2558   26.6755 C   0  0  0  0  0  0  0  0  0  0  0  0
   28.3465   26.9034   27.6140 C   0  0  0  0  0  0  0  0  0  0  0  0
   28.0370   25.5456   27.8904 C   0  0  0  0  0  0  0  0  0  0  0  0
   25.9559   26.3350   29.2199 C   0  0  0  0  0  0  0  0  0  0  0  0
   26.4979   27.0605   30.4480 C   0  0  0  0  0  0  0  0  0  0  0  0
  1  2  1  0
  2  3  2  0
  2  4  1  0
  4  5  2  0
  5  6  1  0
  6  7  2  0
  7  8  1  0
  8  9  2  0
  9 10  1  0
 10 11  2  0
 11 12  1  0
 12 13  2  0
 13 14  1  0
 14 15  1  0
 16 15  1  1
 16 17  1  0
 17 18  1  0
 18 19  1  0
 19 20  2  0
 19 21  1  0
 21 22  1  0
 22 23  2  0
 23 24  1  0
 24 25  2  0
 25 26  1  0
 26 27  2  0
 16 28  1  0
 28 29  1  0
 13  4  1  0
 29 14  1  0
 12  7  1  0
 27 16  1  0
 27 22  1  0
M  END
>  <AAScore>  (1) 
8.2899417240942

>  <RootName>  (1) 
./4ZLY/04_DeltaGEst/trajectory_03/rank_01/lead_0044

$$$$
