confid_15
     RDKit          3D

 27 30  0  0  0  0  0  0  0  0999 V2000
   24.6900   26.1200   35.5300 N   0  0  0  0  0  0  0  0  0  0  0  0
   25.6600   25.6700   34.6600 C   0  0  0  0  0  0  0  0  0  0  0  0
   25.2400   25.0100   33.7200 O   0  0  0  0  0  0  0  0  0  0  0  0
   27.0300   26.2200   34.8800 C   0  0  0  0  0  0  0  0  0  0  0  0
   27.3500   26.7300   36.0700 N   0  0  0  0  0  0  0  0  0  0  0  0
   28.5700   27.1800   36.3300 N   0  0  0  0  0  0  0  0  0  0  0  0
   29.5300   27.1100   35.3900 C   0  0  0  0  0  0  0  0  0  0  0  0
   30.8300   27.5700   35.6500 C   0  0  0  0  0  0  0  0  0  0  0  0
   31.8500   27.5400   34.6900 C   0  0  0  0  0  0  0  0  0  0  0  0
   31.5100   27.1200   33.4000 C   0  0  0  0  0  0  0  0  0  0  0  0
   30.2200   26.6300   33.1100 C   0  0  0  0  0  0  0  0  0  0  0  0
   29.2400   26.6600   34.1000 C   0  0  0  0  0  0  0  0  0  0  0  0
   27.9300   26.2600   33.8100 C   0  0  0  0  0  0  0  0  0  0  0  0
   27.5200   25.7100   32.6100 N   0  0  0  0  0  0  0  0  0  0  0  0
   23.3832   25.5361   35.6950 C   0  0  0  0  0  0  0  0  0  0  0  0
   23.0525   24.3629   35.0947 N   0  0  0  0  0  0  0  0  0  0  0  0
   21.8205   23.8197   35.2469 C   0  0  0  0  0  0  0  0  0  0  0  0
   20.8514   24.4513   36.0413 C   0  0  0  0  0  0  0  0  0  0  0  0
   19.4929   23.7727   36.1488 C   0  0  0  0  0  0  0  0  0  0  0  0
   18.5854   24.3757   37.1462 N   0  0  0  0  0  0  0  0  0  0  0  0
   19.1553   24.3639   38.5106 C   0  0  0  0  0  0  0  0  0  0  0  0
   19.8690   25.6948   38.8031 C   0  0  0  0  0  0  0  0  0  0  0  0
   20.2809   26.4640   37.5393 C   0  0  0  0  0  0  0  0  0  0  0  0
   21.2177   25.6695   36.6697 C   0  0  0  0  0  0  0  0  0  0  0  0
   22.4684   26.1647   36.4762 N   0  0  0  0  0  0  0  0  0  0  0  0
   17.2118   23.8281   37.0774 C   0  0  0  0  0  0  0  0  0  0  0  0
   17.1225   22.3278   37.3934 C   0  0  0  0  0  0  0  0  0  0  0  0
  1  2  1  0
  2  3  2  0
  2  4  1  0
  4  5  2  0
  5  6  1  0
  6  7  2  0
  7  8  1  0
  8  9  2  0
  9 10  1  0
 10 11  2  0
 11 12  1  0
 12 13  2  0
 13 14  1  0
  1 15  1  0
 15 16  2  0
 16 17  1  0
 17 18  2  0
 18 19  1  0
 19 20  1  0
 20 21  1  0
 21 22  1  0
 22 23  1  0
 23 24  1  0
 24 25  2  0
 20 26  1  0
 26 27  1  0
 13  4  1  0
 25 15  1  0
 12  7  1  0
 24 18  1  0
M  END
>  <AAScore>  (1) 
23428.9614519474

>  <RootName>  (1) 
./4ZLY/04_DeltaGEst/trajectory_02/rank_00/lead_0162

$$$$
