confid_8
     RDKit          3D

 27 30  0  0  0  0  0  0  0  0999 V2000
   25.3300   26.2600   34.7600 N   0  0  0  0  0  0  0  0  0  0  0  0
   26.1200   25.9200   33.6900 C   0  0  0  0  0  0  0  0  0  0  0  0
   25.6300   25.1100   32.9400 O   0  0  0  0  0  0  0  0  0  0  0  0
   27.5200   26.3800   33.4600 C   0  0  0  0  0  0  0  0  0  0  0  0
   28.1600   26.6300   34.6100 N   0  0  0  0  0  0  0  0  0  0  0  0
   29.4800   26.8500   34.5700 N   0  0  0  0  0  0  0  0  0  0  0  0
   30.1900   26.7800   33.4400 C   0  0  0  0  0  0  0  0  0  0  0  0
   31.5600   27.0500   33.5000 C   0  0  0  0  0  0  0  0  0  0  0  0
   32.2700   27.2400   32.3100 C   0  0  0  0  0  0  0  0  0  0  0  0
   31.6100   27.2500   31.0800 C   0  0  0  0  0  0  0  0  0  0  0  0
   30.2700   26.8700   31.0600 C   0  0  0  0  0  0  0  0  0  0  0  0
   29.5100   26.6900   32.2300 C   0  0  0  0  0  0  0  0  0  0  0  0
   28.1400   26.4100   32.2000 C   0  0  0  0  0  0  0  0  0  0  0  0
   27.4300   26.1300   31.0500 N   0  0  0  0  0  0  0  0  0  0  0  0
   23.9022   26.0996   34.8358 C   0  0  0  0  0  0  0  0  0  0  0  0
   23.2265   26.2008   36.0025 N   0  0  0  0  0  0  0  0  0  0  0  0
   21.8834   26.0680   35.8282 C   0  0  0  0  0  0  0  0  0  0  0  0
   20.9373   26.0336   36.9910 C   0  0  0  0  0  0  0  0  0  0  0  0
   20.5112   24.6001   37.3403 C   0  0  0  0  0  0  0  0  0  0  0  0
   19.4441   24.1431   36.4165 N   0  0  0  0  0  0  0  0  0  0  0  0
   18.2918   23.6050   37.1623 C   0  0  0  0  0  0  0  0  0  0  0  0
   19.9237   23.1683   35.4060 C   0  0  0  0  0  0  0  0  0  0  0  0
   19.2134   23.4088   34.0607 C   0  0  0  0  0  0  0  0  0  0  0  0
   19.8233   24.5603   33.2444 C   0  0  0  0  0  0  0  0  0  0  0  0
   20.1785   25.6511   34.0902 O   0  0  0  0  0  0  0  0  0  0  0  0
   21.4935   25.8601   34.5119 C   0  0  0  0  0  0  0  0  0  0  0  0
   22.8598   25.8488   33.5291 S   0  0  0  0  0  0  0  0  0  0  0  0
  1  2  1  0
  2  3  2  0
  2  4  1  0
  4  5  2  0
  5  6  1  0
  6  7  2  0
  7  8  1  0
  8  9  2  0
  9 10  1  0
 10 11  2  0
 11 12  1  0
 12 13  2  0
 13 14  1  0
  1 15  1  0
 15 16  2  0
 16 17  1  0
 17 18  1  0
 18 19  1  0
 19 20  1  0
 20 21  1  0
 20 22  1  0
 22 23  1  0
 23 24  1  0
 24 25  1  0
 25 26  1  0
 26 27  1  0
 13  4  1  0
 27 15  1  0
 12  7  1  0
 26 17  2  0
M  END
>  <AAScore>  (1) 
3607.848705755145

>  <RootName>  (1) 
./4ZLY/04_DeltaGEst/trajectory_03/rank_00/lead_0409

$$$$
