confid_13
     RDKit          3D

 31 34  0  0  0  0  0  0  0  0999 V2000
   24.6900   26.1200   35.5300 N   0  0  0  0  0  0  0  0  0  0  0  0
   25.6600   25.6700   34.6600 C   0  0  0  0  0  0  0  0  0  0  0  0
   25.2400   25.0100   33.7200 O   0  0  0  0  0  0  0  0  0  0  0  0
   27.0300   26.2200   34.8800 C   0  0  0  0  0  0  0  0  0  0  0  0
   27.3500   26.7300   36.0700 N   0  0  0  0  0  0  0  0  0  0  0  0
   28.5700   27.1800   36.3300 N   0  0  0  0  0  0  0  0  0  0  0  0
   29.5300   27.1100   35.3900 C   0  0  0  0  0  0  0  0  0  0  0  0
   30.8300   27.5700   35.6500 C   0  0  0  0  0  0  0  0  0  0  0  0
   31.8500   27.5400   34.6900 C   0  0  0  0  0  0  0  0  0  0  0  0
   31.5100   27.1200   33.4000 C   0  0  0  0  0  0  0  0  0  0  0  0
   30.2200   26.6300   33.1100 C   0  0  0  0  0  0  0  0  0  0  0  0
   29.2400   26.6600   34.1000 C   0  0  0  0  0  0  0  0  0  0  0  0
   27.9300   26.2600   33.8100 C   0  0  0  0  0  0  0  0  0  0  0  0
   27.5200   25.7100   32.6100 N   0  0  0  0  0  0  0  0  0  0  0  0
   23.2591   26.0538   35.3244 C   0  0  0  0  0  0  0  0  0  0  0  0
   22.7856   25.7073   34.1601 N   0  0  0  0  0  0  0  0  0  0  0  0
   21.4537   25.6471   33.6152 C   0  0  0  0  0  0  0  0  0  0  0  0
   20.5988   26.6879   33.6390 C   0  0  0  0  0  0  0  0  0  0  0  0
   20.2031   27.4463   34.8731 C   0  0  0  0  0  0  0  0  0  0  0  0
   21.2387   28.3884   35.3332 N   0  0  0  0  0  0  0  0  0  0  0  0
   22.0539   29.0470   34.2809 C   0  0  0  0  0  0  0  0  0  0  0  0
   21.2142   29.5299   33.0695 C   0  0  0  0  0  0  0  0  0  0  0  0
   21.0667   28.4624   31.9627 C   0  0  0  0  0  0  0  0  0  0  0  0
   20.2587   27.3117   32.3947 N   0  0  0  0  0  0  0  0  0  0  0  0
   19.3155   26.6630   31.4748 C   0  0  0  0  0  0  0  0  0  0  0  0
   18.0537   27.5101   31.2657 C   0  0  0  0  0  0  0  0  0  0  0  0
   17.3198   27.7621   32.5561 C   0  0  0  0  0  0  0  0  0  0  0  0
   17.2955   28.8892   33.0269 O   0  0  0  0  0  0  0  0  0  0  0  0
   16.6246   26.6502   33.2824 C   0  0  0  0  0  0  0  0  0  0  0  0
   22.0178   27.9105   36.4982 C   0  0  0  0  0  0  0  0  0  0  0  0
   22.3706   26.4086   36.4760 C   0  0  0  0  0  0  0  0  0  0  0  0
  1  2  1  0
  2  3  2  0
  2  4  1  0
  4  5  2  0
  5  6  1  0
  6  7  2  0
  7  8  1  0
  8  9  2  0
  9 10  1  0
 10 11  2  0
 11 12  1  0
 12 13  2  0
 13 14  1  0
  1 15  1  0
 15 16  2  0
 16 17  1  0
 17 18  2  0
 18 19  1  0
 19 20  1  0
 20 21  1  0
 21 22  1  0
 22 23  1  0
 23 24  1  0
 24 25  1  0
 25 26  1  0
 26 27  1  0
 27 28  2  0
 27 29  1  0
 20 30  1  0
 30 31  1  0
 13  4  1  0
 31 15  1  0
 12  7  1  0
 24 18  1  0
M  END
>  <AAScore>  (1) 
1390.9314100708066

>  <RootName>  (1) 
./4ZLY/04_DeltaGEst/trajectory_02/rank_00/lead_0048

$$$$
