confid_5
     RDKit          3D

 31 35  0  0  0  0  0  0  0  0999 V2000
   24.5700   26.8800   35.5900 N   0  0  0  0  0  0  0  0  0  0  0  0
   25.5000   26.4000   34.6900 C   0  0  0  0  0  0  0  0  0  0  0  0
   25.1700   25.5200   33.9100 O   0  0  0  0  0  0  0  0  0  0  0  0
   26.8400   27.0200   34.7400 C   0  0  0  0  0  0  0  0  0  0  0  0
   27.3800   27.2800   35.9400 N   0  0  0  0  0  0  0  0  0  0  0  0
   28.6200   27.7400   36.0300 N   0  0  0  0  0  0  0  0  0  0  0  0
   29.3800   28.0000   34.9600 C   0  0  0  0  0  0  0  0  0  0  0  0
   30.6700   28.5000   35.1300 C   0  0  0  0  0  0  0  0  0  0  0  0
   31.5400   28.6100   34.0300 C   0  0  0  0  0  0  0  0  0  0  0  0
   31.0900   28.2200   32.7700 C   0  0  0  0  0  0  0  0  0  0  0  0
   29.8000   27.7000   32.6000 C   0  0  0  0  0  0  0  0  0  0  0  0
   28.9600   27.5500   33.7100 C   0  0  0  0  0  0  0  0  0  0  0  0
   27.6600   27.0300   33.5900 C   0  0  0  0  0  0  0  0  0  0  0  0
   27.1600   26.7400   32.3400 N   0  0  0  0  0  0  0  0  0  0  0  0
   23.1486   26.7398   35.4236 C   0  0  0  0  0  0  0  0  0  0  0  0
   22.3611   26.8870   36.4489 N   0  0  0  0  0  0  0  0  0  0  0  0
   20.9159   26.8109   36.4383 C   0  0  0  0  0  0  0  0  0  0  0  0
   20.1356   27.1166   35.3859 C   0  0  0  0  0  0  0  0  0  0  0  0
   19.8247   27.5872   33.9349 C   0  0  1  0  0  0  0  0  0  0  0  0
   20.1728   26.6009   32.7861 C   0  0  0  0  0  0  0  0  0  0  0  0
   21.4759   26.9522   32.1900 N   0  0  0  0  0  0  0  0  0  0  0  0
   21.6439   27.0838   30.7416 C   0  0  0  0  0  0  0  0  0  0  0  0
   21.6674   28.5552   30.3318 C   0  0  0  0  0  0  0  0  0  0  0  0
   22.8693   29.1800   30.7344 O   0  0  0  0  0  0  0  0  0  0  0  0
   22.8459   29.5000   32.1124 C   0  0  0  0  0  0  0  0  0  0  0  0
   23.4710   28.3763   32.9455 C   0  0  0  0  0  0  0  0  0  0  0  0
   22.5759   27.1584   33.0873 C   0  0  0  0  0  0  0  0  0  0  0  0
   22.5684   26.4304   34.1622 N   0  0  0  0  0  0  0  0  0  0  0  0
   18.7218   27.2780   34.8115 C   0  0  0  0  0  0  0  0  0  0  0  0
   17.9572   28.4685   35.3985 C   0  0  0  0  0  0  0  0  0  0  0  0
   17.9531   25.9552   34.6724 C   0  0  0  0  0  0  0  0  0  0  0  0
  1  2  1  0
  2  3  2  0
  2  4  1  0
  4  5  2  0
  5  6  1  0
  6  7  2  0
  7  8  1  0
  8  9  2  0
  9 10  1  0
 10 11  2  0
 11 12  1  0
 12 13  2  0
 13 14  1  0
  1 15  1  0
 15 16  2  0
 16 17  1  0
 17 18  2  0
 18 19  1  0
 19 20  1  6
 20 21  1  0
 21 22  1  0
 22 23  1  0
 23 24  1  0
 24 25  1  0
 25 26  1  0
 26 27  1  0
 27 28  2  0
 19 29  1  0
 29 30  1  0
 29 31  1  0
 13  4  1  0
 28 15  1  0
 12  7  1  0
 29 18  1  0
 27 21  1  0
M  END
>  <AAScore>  (1) 
4011.90814102651

>  <RootName>  (1) 
./4ZLY/04_DeltaGEst/trajectory_05/rank_00/lead_0095

$$$$
