confid_1
     RDKit          3D

 27 30  0  0  0  0  0  0  0  0999 V2000
   24.4800   26.1000   36.1300 N   0  0  0  0  0  0  0  0  0  0  0  0
   25.2500   26.2500   34.9900 C   0  0  0  0  0  0  0  0  0  0  0  0
   24.7400   25.7600   33.9900 O   0  0  0  0  0  0  0  0  0  0  0  0
   26.5900   26.8900   34.9600 C   0  0  0  0  0  0  0  0  0  0  0  0
   27.0600   27.2400   36.1600 N   0  0  0  0  0  0  0  0  0  0  0  0
   28.3000   27.7100   36.2400 N   0  0  0  0  0  0  0  0  0  0  0  0
   29.0500   27.9600   35.1500 C   0  0  0  0  0  0  0  0  0  0  0  0
   30.3400   28.4900   35.2600 C   0  0  0  0  0  0  0  0  0  0  0  0
   31.1100   28.8200   34.1400 C   0  0  0  0  0  0  0  0  0  0  0  0
   30.5200   28.6700   32.8800 C   0  0  0  0  0  0  0  0  0  0  0  0
   29.2900   28.0200   32.7700 C   0  0  0  0  0  0  0  0  0  0  0  0
   28.5200   27.7100   33.8900 C   0  0  0  0  0  0  0  0  0  0  0  0
   27.2700   27.0800   33.7600 C   0  0  0  0  0  0  0  0  0  0  0  0
   26.7500   26.8800   32.4900 N   0  0  0  0  0  0  0  0  0  0  0  0
   23.0439   26.0210   36.1482 C   0  0  0  0  0  0  0  0  0  0  0  0
   22.2887   25.6376   37.2335 C   0  0  0  0  0  0  0  0  0  0  0  0
   20.9709   25.7871   36.8506 C   0  0  0  0  0  0  0  0  0  0  0  0
   19.9105   25.4970   37.7268 O   0  0  0  0  0  0  0  0  0  0  0  0
   18.5981   25.0685   37.3658 C   0  0  0  0  0  0  0  0  0  0  0  0
   17.5884   26.2291   37.3656 C   0  0  0  0  0  0  0  0  0  0  0  0
   18.2512   27.4592   37.5948 O   0  0  0  0  0  0  0  0  0  0  0  0
   17.6942   28.4939   36.8064 C   0  0  0  0  0  0  0  0  0  0  0  0
   18.0023   28.3329   35.4332 O   0  0  0  0  0  0  0  0  0  0  0  0
   19.4000   28.2116   35.2316 C   0  0  0  0  0  0  0  0  0  0  0  0
   19.7442   26.7696   34.8225 C   0  0  0  0  0  0  0  0  0  0  0  0
   20.8967   26.2648   35.5758 N   0  0  0  0  0  0  0  0  0  0  0  0
   22.1704   26.4210   35.1549 C   0  0  0  0  0  0  0  0  0  0  0  0
  1  2  1  0
  2  3  2  0
  2  4  1  0
  4  5  2  0
  5  6  1  0
  6  7  2  0
  7  8  1  0
  8  9  2  0
  9 10  1  0
 10 11  2  0
 11 12  1  0
 12 13  2  0
 13 14  1  0
  1 15  1  0
 15 16  1  0
 16 17  2  0
 17 18  1  0
 18 19  1  0
 19 20  1  0
 20 21  1  0
 21 22  1  0
 22 23  1  0
 23 24  1  0
 24 25  1  0
 25 26  1  0
 26 27  1  0
 13  4  1  0
 27 15  2  0
 12  7  1  0
 26 17  1  0
M  END
>  <AAScore>  (1) 
305.06207011081506

>  <RootName>  (1) 
./4ZLY/04_DeltaGEst/trajectory_00/rank_00/lead_0342

$$$$
