confid_13
     RDKit          3D

 30 34  0  0  0  0  0  0  0  0999 V2000
   24.5500   26.3900   36.2500 N   0  0  0  0  0  0  0  0  0  0  0  0
   25.6000   26.1300   35.4000 C   0  0  0  0  0  0  0  0  0  0  0  0
   25.4300   25.4300   34.4200 O   0  0  0  0  0  0  0  0  0  0  0  0
   26.9800   26.6300   35.7100 C   0  0  0  0  0  0  0  0  0  0  0  0
   27.3200   26.8200   36.9800 N   0  0  0  0  0  0  0  0  0  0  0  0
   28.4700   27.4000   37.3100 N   0  0  0  0  0  0  0  0  0  0  0  0
   29.4000   27.6300   36.3700 C   0  0  0  0  0  0  0  0  0  0  0  0
   30.6600   28.0500   36.8000 C   0  0  0  0  0  0  0  0  0  0  0  0
   31.5700   28.3600   35.7800 C   0  0  0  0  0  0  0  0  0  0  0  0
   31.3700   28.1000   34.4300 C   0  0  0  0  0  0  0  0  0  0  0  0
   30.1200   27.5900   34.0500 C   0  0  0  0  0  0  0  0  0  0  0  0
   29.1500   27.3400   35.0300 C   0  0  0  0  0  0  0  0  0  0  0  0
   27.8800   26.8900   34.6600 C   0  0  0  0  0  0  0  0  0  0  0  0
   27.4800   26.6100   33.3700 N   0  0  0  0  0  0  0  0  0  0  0  0
   23.1705   26.0989   35.9470 C   0  0  0  0  0  0  0  0  0  0  0  0
   22.8156   26.0763   34.6876 N   0  0  0  0  0  0  0  0  0  0  0  0
   21.6314   25.8331   33.9104 C   0  0  0  0  0  0  0  0  0  0  0  0
   20.5674   25.1662   34.3300 C   0  0  0  0  0  0  0  0  0  0  0  0
   19.5171   24.3016   33.6915 C   0  0  0  0  0  0  0  0  0  0  0  0
   19.0349   23.7897   34.8927 O   0  0  0  0  0  0  0  0  0  0  0  0
   19.8900   24.6615   35.5572 C   0  0  1  0  0  0  0  0  0  0  0  0
   20.8649   23.9765   36.5041 C   0  0  0  0  0  0  0  0  0  0  0  0
   21.3784   25.0355   37.4329 C   0  0  0  0  0  0  0  0  0  0  0  0
   22.2636   25.9986   37.1196 C   0  0  0  0  0  0  0  0  0  0  0  0
   22.4090   26.8892   38.1745 O   0  0  0  0  0  0  0  0  0  0  0  0
   21.5987   26.4697   39.2066 C   0  0  0  0  0  0  0  0  0  0  0  0
   21.5147   27.0728   40.3092 O   0  0  0  0  0  0  0  0  0  0  0  0
   20.8597   25.2269   38.8462 C   0  0  0  0  0  0  0  0  0  0  0  0
   21.2742   24.0614   39.7568 C   0  0  0  0  0  0  0  0  0  0  0  0
   19.3434   25.4688   38.8907 C   0  0  0  0  0  0  0  0  0  0  0  0
  1  2  1  0
  2  3  2  0
  2  4  1  0
  4  5  2  0
  5  6  1  0
  6  7  2  0
  7  8  1  0
  8  9  2  0
  9 10  1  0
 10 11  2  0
 11 12  1  0
 12 13  2  0
 13 14  1  0
  1 15  1  0
 15 16  2  0
 16 17  1  0
 17 18  2  0
 18 19  1  0
 19 20  1  0
 20 21  1  0
 21 22  1  1
 22 23  1  0
 23 24  2  0
 24 25  1  0
 25 26  1  0
 26 27  2  0
 26 28  1  0
 28 29  1  0
 28 30  1  0
 13  4  1  0
 24 15  1  0
 12  7  1  0
 21 18  1  0
 28 23  1  0
M  END
>  <AAScore>  (1) 
5651.7604388830005

>  <RootName>  (1) 
./4ZLY/04_DeltaGEst/trajectory_01/rank_00/lead_0133

$$$$
