confid_6
     RDKit          3D

 28 31  0  0  0  0  0  0  0  0999 V2000
   25.3300   26.2600   34.7600 N   0  0  0  0  0  0  0  0  0  0  0  0
   26.1200   25.9200   33.6900 C   0  0  0  0  0  0  0  0  0  0  0  0
   25.6300   25.1100   32.9400 O   0  0  0  0  0  0  0  0  0  0  0  0
   27.5200   26.3800   33.4600 C   0  0  0  0  0  0  0  0  0  0  0  0
   28.1600   26.6300   34.6100 N   0  0  0  0  0  0  0  0  0  0  0  0
   29.4800   26.8500   34.5700 N   0  0  0  0  0  0  0  0  0  0  0  0
   30.1900   26.7800   33.4400 C   0  0  0  0  0  0  0  0  0  0  0  0
   31.5600   27.0500   33.5000 C   0  0  0  0  0  0  0  0  0  0  0  0
   32.2700   27.2400   32.3100 C   0  0  0  0  0  0  0  0  0  0  0  0
   31.6100   27.2500   31.0800 C   0  0  0  0  0  0  0  0  0  0  0  0
   30.2700   26.8700   31.0600 C   0  0  0  0  0  0  0  0  0  0  0  0
   29.5100   26.6900   32.2300 C   0  0  0  0  0  0  0  0  0  0  0  0
   28.1400   26.4100   32.2000 C   0  0  0  0  0  0  0  0  0  0  0  0
   27.4300   26.1300   31.0500 N   0  0  0  0  0  0  0  0  0  0  0  0
   26.5032   27.1397   30.5164 C   0  0  0  0  0  0  0  0  0  0  0  0
   26.9744   27.6479   29.1524 C   0  0  0  0  0  0  0  0  0  0  0  0
   27.5278   26.5741   28.3000 N   0  0  0  0  0  0  0  0  0  0  0  0
   28.7201   26.8145   27.5234 C   0  0  0  0  0  0  0  0  0  0  0  0
   29.0016   28.0843   26.9887 C   0  0  0  0  0  0  0  0  0  0  0  0
   30.1698   28.2790   26.2484 C   0  0  0  0  0  0  0  0  0  0  0  0
   31.0258   27.2448   26.0392 N   0  0  0  0  0  0  0  0  0  0  0  0
   30.7757   26.0028   26.5304 C   0  0  0  0  0  0  0  0  0  0  0  0
   29.6162   25.7633   27.2728 C   0  0  0  0  0  0  0  0  0  0  0  0
   31.9145   24.7058   26.2310 Cl  0  0  0  0  0  0  0  0  0  0  0  0
   26.8362   25.3594   28.0594 N   0  0  0  0  0  0  0  0  0  0  0  0
   25.5958   25.6199   27.3185 C   0  0  0  0  0  0  0  0  0  0  0  0
   26.6028   24.5478   29.2771 C   0  0  0  0  0  0  0  0  0  0  0  0
   27.6083   24.8116   30.4144 C   0  0  0  0  0  0  0  0  0  0  0  0
  1  2  1  0
  2  3  2  0
  2  4  1  0
  4  5  2  0
  5  6  1  0
  6  7  2  0
  7  8  1  0
  8  9  2  0
  9 10  1  0
 10 11  2  0
 11 12  1  0
 12 13  2  0
 13 14  1  0
 14 15  1  0
 15 16  1  0
 16 17  1  0
 17 18  1  0
 18 19  2  0
 19 20  1  0
 20 21  2  0
 21 22  1  0
 22 23  2  0
 22 24  1  0
 17 25  1  0
 25 26  1  0
 25 27  1  0
 27 28  1  0
 13  4  1  0
 28 14  1  0
 12  7  1  0
 23 18  1  0
M  END
>  <AAScore>  (1) 
4.57245887602718

>  <RootName>  (1) 
./4ZLY/04_DeltaGEst/trajectory_03/rank_01/lead_0291

$$$$
