confid_19
     RDKit          3D

 29 32  0  0  0  0  0  0  0  0999 V2000
   24.2000   26.2400   35.6900 N   0  0  0  0  0  0  0  0  0  0  0  0
   24.8500   26.2800   34.4800 C   0  0  0  0  0  0  0  0  0  0  0  0
   24.3100   25.7400   33.5400 O   0  0  0  0  0  0  0  0  0  0  0  0
   26.1800   26.9700   34.4700 C   0  0  0  0  0  0  0  0  0  0  0  0
   26.6500   27.6000   35.5500 N   0  0  0  0  0  0  0  0  0  0  0  0
   27.7900   28.2700   35.6200 N   0  0  0  0  0  0  0  0  0  0  0  0
   28.5400   28.3000   34.5100 C   0  0  0  0  0  0  0  0  0  0  0  0
   29.7700   28.9400   34.5600 C   0  0  0  0  0  0  0  0  0  0  0  0
   30.7000   28.8900   33.5000 C   0  0  0  0  0  0  0  0  0  0  0  0
   30.3700   28.1400   32.3700 C   0  0  0  0  0  0  0  0  0  0  0  0
   29.1200   27.5200   32.2800 C   0  0  0  0  0  0  0  0  0  0  0  0
   28.2100   27.6100   33.3300 C   0  0  0  0  0  0  0  0  0  0  0  0
   26.9700   26.9700   33.3100 C   0  0  0  0  0  0  0  0  0  0  0  0
   26.5300   26.2400   32.2200 N   0  0  0  0  0  0  0  0  0  0  0  0
   30.1245   29.6801   35.7410 N   0  0  0  0  0  0  0  0  0  0  0  0
   31.1201   29.1540   36.6809 C   0  0  0  0  0  0  0  0  0  0  0  0
   32.4982   29.7973   36.4698 C   0  0  0  0  0  0  0  0  0  0  0  0
   32.4410   31.3267   36.3489 C   0  0  0  0  0  0  0  0  0  0  0  0
   31.8481   31.7028   35.0354 N   0  0  0  0  0  0  0  0  0  0  0  0
   32.6657   32.7461   34.3441 C   0  0  0  0  0  0  0  0  0  0  0  0
   31.9411   33.3895   33.1286 C   0  0  0  0  0  0  0  0  0  0  0  0
   32.9503   34.0655   32.1964 C   0  0  0  0  0  0  0  0  0  0  0  0
   33.8442   33.0741   31.5512 N   0  0  0  0  0  0  0  0  0  0  0  0
   35.0907   33.7134   31.0791 C   0  0  0  0  0  0  0  0  0  0  0  0
   35.6147   33.0072   29.8311 C   0  0  0  0  0  0  0  0  0  0  0  0
   34.1053   31.8704   32.3846 C   0  0  0  0  0  0  0  0  0  0  0  0
   34.0429   32.1624   33.8928 C   0  0  0  0  0  0  0  0  0  0  0  0
   30.4163   32.0795   35.1867 C   0  0  0  0  0  0  0  0  0  0  0  0
   29.5856   31.0278   35.9457 C   0  0  0  0  0  0  0  0  0  0  0  0
  1  2  1  0
  2  3  2  0
  2  4  1  0
  4  5  2  0
  5  6  1  0
  6  7  2  0
  7  8  1  0
  8  9  2  0
  9 10  1  0
 10 11  2  0
 11 12  1  0
 12 13  2  0
 13 14  1  0
  8 15  1  0
 15 16  1  0
 16 17  1  0
 17 18  1  0
 18 19  1  0
 19 20  1  0
 20 21  1  0
 21 22  1  0
 22 23  1  0
 23 24  1  0
 24 25  1  0
 23 26  1  0
 26 27  1  0
 19 28  1  0
 28 29  1  0
 13  4  1  0
 29 15  1  0
 12  7  1  0
 27 20  1  0
M  END
>  <AAScore>  (1) 
-6.655243337716959

>  <RootName>  (1) 
./4ZLY/04_DeltaGEst/trajectory_04/rank_01/lead_0455

$$$$
