confid_18
     RDKit          3D

 29 32  0  0  0  0  0  0  0  0999 V2000
   24.5500   26.3900   36.2500 N   0  0  0  0  0  0  0  0  0  0  0  0
   25.6000   26.1300   35.4000 C   0  0  0  0  0  0  0  0  0  0  0  0
   25.4300   25.4300   34.4200 O   0  0  0  0  0  0  0  0  0  0  0  0
   26.9800   26.6300   35.7100 C   0  0  0  0  0  0  0  0  0  0  0  0
   27.3200   26.8200   36.9800 N   0  0  0  0  0  0  0  0  0  0  0  0
   28.4700   27.4000   37.3100 N   0  0  0  0  0  0  0  0  0  0  0  0
   29.4000   27.6300   36.3700 C   0  0  0  0  0  0  0  0  0  0  0  0
   30.6600   28.0500   36.8000 C   0  0  0  0  0  0  0  0  0  0  0  0
   31.5700   28.3600   35.7800 C   0  0  0  0  0  0  0  0  0  0  0  0
   31.3700   28.1000   34.4300 C   0  0  0  0  0  0  0  0  0  0  0  0
   30.1200   27.5900   34.0500 C   0  0  0  0  0  0  0  0  0  0  0  0
   29.1500   27.3400   35.0300 C   0  0  0  0  0  0  0  0  0  0  0  0
   27.8800   26.8900   34.6600 C   0  0  0  0  0  0  0  0  0  0  0  0
   27.4800   26.6100   33.3700 N   0  0  0  0  0  0  0  0  0  0  0  0
   23.2140   25.8032   36.0674 C   0  0  0  0  0  0  0  0  0  0  0  0
   22.1609   26.5849   36.8891 C   0  0  0  0  0  0  0  0  0  0  0  0
   22.0374   26.0553   38.3220 C   0  0  0  0  0  0  0  0  0  0  0  0
   21.7509   24.6136   38.3318 N   0  0  0  0  0  0  0  0  0  0  0  0
   21.3560   24.0015   39.5759 C   0  0  0  0  0  0  0  0  0  0  0  0
   21.9475   24.3540   40.6336 O   0  0  0  0  0  0  0  0  0  0  0  0
   20.2491   22.9512   39.6610 C   0  0  0  0  0  0  0  0  0  0  0  0
   19.4965   22.9365   38.3954 N   0  0  0  0  0  0  0  0  0  0  0  0
   19.3002   23.3099   40.8446 C   0  0  0  0  0  0  0  0  0  0  0  0
   18.2933   22.1962   41.1661 C   0  0  0  0  0  0  0  0  0  0  0  0
   19.0101   20.8716   41.4416 C   0  0  0  0  0  0  0  0  0  0  0  0
   19.8933   20.4646   40.2599 C   0  0  0  0  0  0  0  0  0  0  0  0
   20.9077   21.5662   39.9121 C   0  0  0  0  0  0  0  0  0  0  0  0
   21.9790   23.8142   37.1189 C   0  0  0  0  0  0  0  0  0  0  0  0
   23.2509   24.2915   36.4133 C   0  0  0  0  0  0  0  0  0  0  0  0
  1  2  1  0
  2  3  2  0
  2  4  1  0
  4  5  2  0
  5  6  1  0
  6  7  2  0
  7  8  1  0
  8  9  2  0
  9 10  1  0
 10 11  2  0
 11 12  1  0
 12 13  2  0
 13 14  1  0
  1 15  1  0
 15 16  1  0
 16 17  1  0
 17 18  1  0
 18 19  1  0
 19 20  2  0
 19 21  1  0
 21 22  1  0
 21 23  1  0
 23 24  1  0
 24 25  1  0
 25 26  1  0
 26 27  1  0
 18 28  1  0
 28 29  1  0
 13  4  1  0
 29 15  1  0
 12  7  1  0
 27 21  1  0
M  END
>  <AAScore>  (1) 
925.9744757474404

>  <RootName>  (1) 
./4ZLY/04_DeltaGEst/trajectory_01/rank_00/lead_0106

$$$$
