confid_2
     RDKit          3D

 27 30  0  0  0  0  0  0  0  0999 V2000
   24.2000   26.2400   35.6900 N   0  0  0  0  0  0  0  0  0  0  0  0
   24.8500   26.2800   34.4800 C   0  0  0  0  0  0  0  0  0  0  0  0
   24.3100   25.7400   33.5400 O   0  0  0  0  0  0  0  0  0  0  0  0
   26.1800   26.9700   34.4700 C   0  0  0  0  0  0  0  0  0  0  0  0
   26.6500   27.6000   35.5500 N   0  0  0  0  0  0  0  0  0  0  0  0
   27.7900   28.2700   35.6200 N   0  0  0  0  0  0  0  0  0  0  0  0
   28.5400   28.3000   34.5100 C   0  0  0  0  0  0  0  0  0  0  0  0
   29.7700   28.9400   34.5600 C   0  0  0  0  0  0  0  0  0  0  0  0
   30.7000   28.8900   33.5000 C   0  0  0  0  0  0  0  0  0  0  0  0
   30.3700   28.1400   32.3700 C   0  0  0  0  0  0  0  0  0  0  0  0
   29.1200   27.5200   32.2800 C   0  0  0  0  0  0  0  0  0  0  0  0
   28.2100   27.6100   33.3300 C   0  0  0  0  0  0  0  0  0  0  0  0
   26.9700   26.9700   33.3100 C   0  0  0  0  0  0  0  0  0  0  0  0
   26.5300   26.2400   32.2200 N   0  0  0  0  0  0  0  0  0  0  0  0
   22.7691   26.1228   35.8323 C   0  0  0  0  0  0  0  0  0  0  0  0
   21.9572   26.3179   34.7571 N   0  0  0  0  0  0  0  0  0  0  0  0
   20.6026   26.2402   34.8311 C   0  0  0  0  0  0  0  0  0  0  0  0
   19.7935   26.4804   33.5890 C   0  0  0  0  0  0  0  0  0  0  0  0
   18.9577   27.7691   33.7090 C   0  0  0  0  0  0  0  0  0  0  0  0
   18.4416   27.9850   35.0127 O   0  0  0  0  0  0  0  0  0  0  0  0
   17.6475   26.8907   35.4329 C   0  0  0  0  0  0  0  0  0  0  0  0
   18.4745   25.8402   36.2108 C   0  0  0  0  0  0  0  0  0  0  0  0
   19.9823   25.9731   36.0700 C   0  0  0  0  0  0  0  0  0  0  0  0
   20.7994   25.7576   37.1895 C   0  0  0  0  0  0  0  0  0  0  0  0
   22.1992   25.8373   37.0853 C   0  0  0  0  0  0  0  0  0  0  0  0
   23.0407   25.6344   38.1916 O   0  0  0  0  0  0  0  0  0  0  0  0
   22.5880   25.3414   39.5095 C   0  0  0  0  0  0  0  0  0  0  0  0
  1  2  1  0
  2  3  2  0
  2  4  1  0
  4  5  2  0
  5  6  1  0
  6  7  2  0
  7  8  1  0
  8  9  2  0
  9 10  1  0
 10 11  2  0
 11 12  1  0
 12 13  2  0
 13 14  1  0
  1 15  1  0
 15 16  2  0
 16 17  1  0
 17 18  1  0
 18 19  1  0
 19 20  1  0
 20 21  1  0
 21 22  1  0
 22 23  1  0
 23 24  1  0
 24 25  2  0
 25 26  1  0
 26 27  1  0
 13  4  1  0
 25 15  1  0
 12  7  1  0
 23 17  2  0
M  END
>  <AAScore>  (1) 
988.7991923688396

>  <RootName>  (1) 
./4ZLY/04_DeltaGEst/trajectory_04/rank_00/lead_0333

$$$$
