confid_1
     RDKit          3D

 28 31  0  0  0  0  0  0  0  0999 V2000
   24.5500   26.3900   36.2500 N   0  0  0  0  0  0  0  0  0  0  0  0
   25.6000   26.1300   35.4000 C   0  0  0  0  0  0  0  0  0  0  0  0
   25.4300   25.4300   34.4200 O   0  0  0  0  0  0  0  0  0  0  0  0
   26.9800   26.6300   35.7100 C   0  0  0  0  0  0  0  0  0  0  0  0
   27.3200   26.8200   36.9800 N   0  0  0  0  0  0  0  0  0  0  0  0
   28.4700   27.4000   37.3100 N   0  0  0  0  0  0  0  0  0  0  0  0
   29.4000   27.6300   36.3700 C   0  0  0  0  0  0  0  0  0  0  0  0
   30.6600   28.0500   36.8000 C   0  0  0  0  0  0  0  0  0  0  0  0
   31.5700   28.3600   35.7800 C   0  0  0  0  0  0  0  0  0  0  0  0
   31.3700   28.1000   34.4300 C   0  0  0  0  0  0  0  0  0  0  0  0
   30.1200   27.5900   34.0500 C   0  0  0  0  0  0  0  0  0  0  0  0
   29.1500   27.3400   35.0300 C   0  0  0  0  0  0  0  0  0  0  0  0
   27.8800   26.8900   34.6600 C   0  0  0  0  0  0  0  0  0  0  0  0
   27.4800   26.6100   33.3700 N   0  0  0  0  0  0  0  0  0  0  0  0
   31.0036   28.3095   38.2174 C   0  0  0  0  0  0  0  0  0  0  0  0
   32.1117   27.6538   38.7913 C   0  0  0  0  0  0  0  0  0  0  0  0
   32.4277   27.9097   40.1253 C   0  0  0  0  0  0  0  0  0  0  0  0
   33.5432   27.3355   40.9285 C   0  0  0  0  0  0  0  0  0  0  0  0
   33.3699   28.0042   42.3142 C   0  0  0  0  0  0  0  0  0  0  0  0
   32.2064   28.8830   42.1942 N   0  0  0  0  0  0  0  0  0  0  0  0
   31.6414   29.6584   43.2989 C   0  0  0  0  0  0  0  0  0  0  0  0
   30.5449   28.8678   44.0114 C   0  0  0  0  0  0  0  0  0  0  0  0
   29.4676   28.6417   43.1277 O   0  0  0  0  0  0  0  0  0  0  0  0
   28.4821   27.8723   43.7783 C   0  0  0  0  0  0  0  0  0  0  0  0
   31.6923   28.7828   40.8763 C   0  0  0  0  0  0  0  0  0  0  0  0
   30.6023   29.4696   40.3345 C   0  0  0  0  0  0  0  0  0  0  0  0
   30.2580   29.2311   38.9943 C   0  0  0  0  0  0  0  0  0  0  0  0
   29.2245   29.9196   38.4467 F   0  0  0  0  0  0  0  0  0  0  0  0
  1  2  1  0
  2  3  2  0
  2  4  1  0
  4  5  2  0
  5  6  1  0
  6  7  2  0
  7  8  1  0
  8  9  2  0
  9 10  1  0
 10 11  2  0
 11 12  1  0
 12 13  2  0
 13 14  1  0
  8 15  1  0
 15 16  2  0
 16 17  1  0
 17 18  1  0
 18 19  1  0
 19 20  1  0
 20 21  1  0
 21 22  1  0
 22 23  1  0
 23 24  1  0
 20 25  1  0
 25 26  1  0
 26 27  2  0
 27 28  1  0
 13  4  1  0
 27 15  1  0
 12  7  1  0
 25 17  2  0
M  END
>  <AAScore>  (1) 
112.15286556838588

>  <RootName>  (1) 
./4ZLY/04_DeltaGEst/trajectory_01/rank_01/lead_0209

$$$$
