confid_4
     RDKit          3D

 27 30  0  0  0  0  0  0  0  0999 V2000
   24.5500   26.3900   36.2500 N   0  0  0  0  0  0  0  0  0  0  0  0
   25.6000   26.1300   35.4000 C   0  0  0  0  0  0  0  0  0  0  0  0
   25.4300   25.4300   34.4200 O   0  0  0  0  0  0  0  0  0  0  0  0
   26.9800   26.6300   35.7100 C   0  0  0  0  0  0  0  0  0  0  0  0
   27.3200   26.8200   36.9800 N   0  0  0  0  0  0  0  0  0  0  0  0
   28.4700   27.4000   37.3100 N   0  0  0  0  0  0  0  0  0  0  0  0
   29.4000   27.6300   36.3700 C   0  0  0  0  0  0  0  0  0  0  0  0
   30.6600   28.0500   36.8000 C   0  0  0  0  0  0  0  0  0  0  0  0
   31.5700   28.3600   35.7800 C   0  0  0  0  0  0  0  0  0  0  0  0
   31.3700   28.1000   34.4300 C   0  0  0  0  0  0  0  0  0  0  0  0
   30.1200   27.5900   34.0500 C   0  0  0  0  0  0  0  0  0  0  0  0
   29.1500   27.3400   35.0300 C   0  0  0  0  0  0  0  0  0  0  0  0
   27.8800   26.8900   34.6600 C   0  0  0  0  0  0  0  0  0  0  0  0
   27.4800   26.6100   33.3700 N   0  0  0  0  0  0  0  0  0  0  0  0
   30.9879   28.2826   38.1793 N   0  0  0  0  0  0  0  0  0  0  0  0
   30.3144   28.1492   39.4559 C   0  0  0  0  0  0  0  0  0  0  0  0
   31.4636   28.6146   40.2133 C   0  0  2  0  0  0  0  0  0  0  0  0
   32.0507   27.5754   41.1632 C   0  0  0  0  0  0  0  0  0  0  0  0
   31.2121   26.9239   42.0900 C   0  0  0  0  0  0  0  0  0  0  0  0
   31.7377   26.0088   43.0065 C   0  0  0  0  0  0  0  0  0  0  0  0
   33.1094   25.7499   43.0293 C   0  0  0  0  0  0  0  0  0  0  0  0
   33.6181   24.8647   43.9214 F   0  0  0  0  0  0  0  0  0  0  0  0
   33.9590   26.4163   42.1440 C   0  0  0  0  0  0  0  0  0  0  0  0
   33.4383   27.3328   41.2252 C   0  0  0  0  0  0  0  0  0  0  0  0
   31.2576   29.9743   40.8976 C   0  0  0  0  0  0  0  0  0  0  0  0
   32.1914   28.7591   38.9019 C   0  0  0  0  0  0  0  0  0  0  0  0
   33.3345   29.1572   38.5544 O   0  0  0  0  0  0  0  0  0  0  0  0
  1  2  1  0
  2  3  2  0
  2  4  1  0
  4  5  2  0
  5  6  1  0
  6  7  2  0
  7  8  1  0
  8  9  2  0
  9 10  1  0
 10 11  2  0
 11 12  1  0
 12 13  2  0
 13 14  1  0
  8 15  1  0
 15 16  1  0
 16 17  1  0
 17 18  1  0
 18 19  2  0
 19 20  1  0
 20 21  2  0
 21 22  1  0
 21 23  1  0
 23 24  2  0
 17 25  1  1
 17 26  1  0
 26 27  2  0
 13  4  1  0
 26 15  1  0
 12  7  1  0
 24 18  1  0
M  END
>  <AAScore>  (1) 
65.93079382933914

>  <RootName>  (1) 
./4ZLY/04_DeltaGEst/trajectory_01/rank_01/lead_0374

$$$$
