confid_11
     RDKit          3D

 27 30  0  0  0  0  0  0  0  0999 V2000
   24.4800   26.1000   36.1300 N   0  0  0  0  0  0  0  0  0  0  0  0
   25.2500   26.2500   34.9900 C   0  0  0  0  0  0  0  0  0  0  0  0
   24.7400   25.7600   33.9900 O   0  0  0  0  0  0  0  0  0  0  0  0
   26.5900   26.8900   34.9600 C   0  0  0  0  0  0  0  0  0  0  0  0
   27.0600   27.2400   36.1600 N   0  0  0  0  0  0  0  0  0  0  0  0
   28.3000   27.7100   36.2400 N   0  0  0  0  0  0  0  0  0  0  0  0
   29.0500   27.9600   35.1500 C   0  0  0  0  0  0  0  0  0  0  0  0
   30.3400   28.4900   35.2600 C   0  0  0  0  0  0  0  0  0  0  0  0
   31.1100   28.8200   34.1400 C   0  0  0  0  0  0  0  0  0  0  0  0
   30.5200   28.6700   32.8800 C   0  0  0  0  0  0  0  0  0  0  0  0
   29.2900   28.0200   32.7700 C   0  0  0  0  0  0  0  0  0  0  0  0
   28.5200   27.7100   33.8900 C   0  0  0  0  0  0  0  0  0  0  0  0
   27.2700   27.0800   33.7600 C   0  0  0  0  0  0  0  0  0  0  0  0
   26.7500   26.8800   32.4900 N   0  0  0  0  0  0  0  0  0  0  0  0
   23.4903   25.0731   36.3408 C   0  0  0  0  0  0  0  0  0  0  0  0
   23.3920   24.0091   35.4874 N   0  0  0  0  0  0  0  0  0  0  0  0
   22.4740   23.0348   35.7098 C   0  0  0  0  0  0  0  0  0  0  0  0
   22.2181   21.8605   34.8584 C   0  0  0  0  0  0  0  0  0  0  0  0
   21.0688   21.1596   35.4845 N   0  0  0  0  0  0  0  0  0  0  0  0
   19.9140   21.1086   34.5743 C   0  0  0  0  0  0  0  0  0  0  0  0
   20.7352   21.8800   36.7435 C   0  0  1  0  0  0  0  0  0  0  0  0
   20.9998   20.9538   37.9315 C   0  0  0  0  0  0  0  0  0  0  0  0
   21.6333   23.0677   36.7764 C   0  0  0  0  0  0  0  0  0  0  0  0
   21.6752   24.1414   37.6742 C   0  0  0  0  0  0  0  0  0  0  0  0
   22.6270   25.1515   37.4557 C   0  0  0  0  0  0  0  0  0  0  0  0
   20.7604   24.2335   38.7826 C   0  0  0  0  0  0  0  0  0  0  0  0
   20.0250   24.3078   39.6730 N   0  0  0  0  0  0  0  0  0  0  0  0
  1  2  1  0
  2  3  2  0
  2  4  1  0
  4  5  2  0
  5  6  1  0
  6  7  2  0
  7  8  1  0
  8  9  2  0
  9 10  1  0
 10 11  2  0
 11 12  1  0
 12 13  2  0
 13 14  1  0
  1 15  1  0
 15 16  2  0
 16 17  1  0
 17 18  1  0
 18 19  1  0
 19 20  1  0
 19 21  1  0
 21 22  1  1
 21 23  1  0
 23 24  1  0
 24 25  2  0
 24 26  1  0
 26 27  3  0
 13  4  1  0
 25 15  1  0
 12  7  1  0
 23 17  2  0
M  END
>  <AAScore>  (1) 
395.0064380860919

>  <RootName>  (1) 
./4ZLY/04_DeltaGEst/trajectory_00/rank_01/lead_0313

$$$$
