confid_10
     RDKit          3D

 30 34  0  0  0  0  0  0  0  0999 V2000
   24.5500   26.3900   36.2500 N   0  0  0  0  0  0  0  0  0  0  0  0
   25.6000   26.1300   35.4000 C   0  0  0  0  0  0  0  0  0  0  0  0
   25.4300   25.4300   34.4200 O   0  0  0  0  0  0  0  0  0  0  0  0
   26.9800   26.6300   35.7100 C   0  0  0  0  0  0  0  0  0  0  0  0
   27.3200   26.8200   36.9800 N   0  0  0  0  0  0  0  0  0  0  0  0
   28.4700   27.4000   37.3100 N   0  0  0  0  0  0  0  0  0  0  0  0
   29.4000   27.6300   36.3700 C   0  0  0  0  0  0  0  0  0  0  0  0
   30.6600   28.0500   36.8000 C   0  0  0  0  0  0  0  0  0  0  0  0
   31.5700   28.3600   35.7800 C   0  0  0  0  0  0  0  0  0  0  0  0
   31.3700   28.1000   34.4300 C   0  0  0  0  0  0  0  0  0  0  0  0
   30.1200   27.5900   34.0500 C   0  0  0  0  0  0  0  0  0  0  0  0
   29.1500   27.3400   35.0300 C   0  0  0  0  0  0  0  0  0  0  0  0
   27.8800   26.8900   34.6600 C   0  0  0  0  0  0  0  0  0  0  0  0
   27.4800   26.6100   33.3700 N   0  0  0  0  0  0  0  0  0  0  0  0
   23.1718   26.0624   35.9744 C   0  0  0  0  0  0  0  0  0  0  0  0
   22.8139   25.9151   34.7248 N   0  0  0  0  0  0  0  0  0  0  0  0
   21.6176   25.5535   34.0180 C   0  0  0  0  0  0  0  0  0  0  0  0
   20.7245   24.6993   34.4939 C   0  0  0  0  0  0  0  0  0  0  0  0
   19.9400   23.5415   33.9445 C   0  0  0  0  0  0  0  0  0  0  0  0
   19.6103   23.0163   35.1918 O   0  0  0  0  0  0  0  0  0  0  0  0
   20.1920   24.1395   35.7680 C   0  0  1  0  0  0  0  0  0  0  0  0
   21.2934   23.8398   36.7799 C   0  0  0  0  0  0  0  0  0  0  0  0
   21.4848   25.0994   37.5948 C   0  0  0  0  0  0  0  0  0  0  0  0
   22.2499   26.1187   37.1423 C   0  0  0  0  0  0  0  0  0  0  0  0
   22.3429   27.2746   37.9158 O   0  0  0  0  0  0  0  0  0  0  0  0
   21.9487   27.2897   39.2765 C   0  0  0  0  0  0  0  0  0  0  0  0
   20.7471   26.5731   39.4457 O   0  0  0  0  0  0  0  0  0  0  0  0
   20.8424   25.2216   38.9971 C   0  0  0  0  0  0  0  0  0  0  0  0
   19.3888   24.7042   38.9993 C   0  0  0  0  0  0  0  0  0  0  0  0
   21.6542   24.3778   40.0044 C   0  0  0  0  0  0  0  0  0  0  0  0
  1  2  1  0
  2  3  2  0
  2  4  1  0
  4  5  2  0
  5  6  1  0
  6  7  2  0
  7  8  1  0
  8  9  2  0
  9 10  1  0
 10 11  2  0
 11 12  1  0
 12 13  2  0
 13 14  1  0
  1 15  1  0
 15 16  2  0
 16 17  1  0
 17 18  2  0
 18 19  1  0
 19 20  1  0
 20 21  1  0
 21 22  1  1
 22 23  1  0
 23 24  2  0
 24 25  1  0
 25 26  1  0
 26 27  1  0
 27 28  1  0
 28 29  1  0
 28 30  1  0
 13  4  1  0
 24 15  1  0
 12  7  1  0
 21 18  1  0
 28 23  1  0
M  END
>  <AAScore>  (1) 
2297.8739423544894

>  <RootName>  (1) 
./4ZLY/04_DeltaGEst/trajectory_01/rank_00/lead_0132

$$$$
