confid_15
     RDKit          3D

 27 30  0  0  0  0  0  0  0  0999 V2000
   24.6900   26.1200   35.5300 N   0  0  0  0  0  0  0  0  0  0  0  0
   25.6600   25.6700   34.6600 C   0  0  0  0  0  0  0  0  0  0  0  0
   25.2400   25.0100   33.7200 O   0  0  0  0  0  0  0  0  0  0  0  0
   27.0300   26.2200   34.8800 C   0  0  0  0  0  0  0  0  0  0  0  0
   27.3500   26.7300   36.0700 N   0  0  0  0  0  0  0  0  0  0  0  0
   28.5700   27.1800   36.3300 N   0  0  0  0  0  0  0  0  0  0  0  0
   29.5300   27.1100   35.3900 C   0  0  0  0  0  0  0  0  0  0  0  0
   30.8300   27.5700   35.6500 C   0  0  0  0  0  0  0  0  0  0  0  0
   31.8500   27.5400   34.6900 C   0  0  0  0  0  0  0  0  0  0  0  0
   31.5100   27.1200   33.4000 C   0  0  0  0  0  0  0  0  0  0  0  0
   30.2200   26.6300   33.1100 C   0  0  0  0  0  0  0  0  0  0  0  0
   29.2400   26.6600   34.1000 C   0  0  0  0  0  0  0  0  0  0  0  0
   27.9300   26.2600   33.8100 C   0  0  0  0  0  0  0  0  0  0  0  0
   27.5200   25.7100   32.6100 N   0  0  0  0  0  0  0  0  0  0  0  0
   31.1585   28.0724   36.9560 N   0  0  0  0  0  0  0  0  0  0  0  0
   31.8606   27.2097   37.9128 C   0  0  0  0  0  0  0  0  0  0  0  0
   30.9002   26.6484   38.9715 C   0  0  0  0  0  0  0  0  0  0  0  0
   30.3949   27.7186   39.9508 C   0  0  0  0  0  0  0  0  0  0  0  0
   29.3627   28.6180   39.3206 C   0  0  0  0  0  0  0  0  0  0  0  0
   28.1203   28.8532   39.7889 N   0  0  0  0  0  0  0  0  0  0  0  0
   27.4956   28.3014   40.9913 C   0  0  0  0  0  0  0  0  0  0  0  0
   28.0903   28.8459   42.1144 F   0  0  0  0  0  0  0  0  0  0  0  0
   26.1410   28.5857   41.0122 F   0  0  0  0  0  0  0  0  0  0  0  0
   27.5881   29.7679   38.9496 C   0  0  0  0  0  0  0  0  0  0  0  0
   28.4311   30.1190   37.9549 N   0  0  0  0  0  0  0  0  0  0  0  0
   29.5415   29.3930   38.1938 C   0  0  0  0  0  0  0  0  0  0  0  0
   30.7660   29.4322   37.3373 C   0  0  0  0  0  0  0  0  0  0  0  0
  1  2  1  0
  2  3  2  0
  2  4  1  0
  4  5  2  0
  5  6  1  0
  6  7  2  0
  7  8  1  0
  8  9  2  0
  9 10  1  0
 10 11  2  0
 11 12  1  0
 12 13  2  0
 13 14  1  0
  8 15  1  0
 15 16  1  0
 16 17  1  0
 17 18  1  0
 18 19  1  0
 19 20  1  0
 20 21  1  0
 21 22  1  0
 21 23  1  0
 20 24  1  0
 24 25  2  0
 25 26  1  0
 26 27  1  0
 13  4  1  0
 27 15  1  0
 12  7  1  0
 26 19  2  0
M  END
>  <AAScore>  (1) 
-4.336979873772826

>  <RootName>  (1) 
./4ZLY/04_DeltaGEst/trajectory_02/rank_01/lead_0393

$$$$
