confid_4
     RDKit          3D

 27 30  0  0  0  0  0  0  0  0999 V2000
   24.2000   26.2400   35.6900 N   0  0  0  0  0  0  0  0  0  0  0  0
   24.8500   26.2800   34.4800 C   0  0  0  0  0  0  0  0  0  0  0  0
   24.3100   25.7400   33.5400 O   0  0  0  0  0  0  0  0  0  0  0  0
   26.1800   26.9700   34.4700 C   0  0  0  0  0  0  0  0  0  0  0  0
   26.6500   27.6000   35.5500 N   0  0  0  0  0  0  0  0  0  0  0  0
   27.7900   28.2700   35.6200 N   0  0  0  0  0  0  0  0  0  0  0  0
   28.5400   28.3000   34.5100 C   0  0  0  0  0  0  0  0  0  0  0  0
   29.7700   28.9400   34.5600 C   0  0  0  0  0  0  0  0  0  0  0  0
   30.7000   28.8900   33.5000 C   0  0  0  0  0  0  0  0  0  0  0  0
   30.3700   28.1400   32.3700 C   0  0  0  0  0  0  0  0  0  0  0  0
   29.1200   27.5200   32.2800 C   0  0  0  0  0  0  0  0  0  0  0  0
   28.2100   27.6100   33.3300 C   0  0  0  0  0  0  0  0  0  0  0  0
   26.9700   26.9700   33.3100 C   0  0  0  0  0  0  0  0  0  0  0  0
   26.5300   26.2400   32.2200 N   0  0  0  0  0  0  0  0  0  0  0  0
   22.7722   26.1562   35.8478 C   0  0  0  0  0  0  0  0  0  0  0  0
   22.2669   25.5701   36.9657 N   0  0  0  0  0  0  0  0  0  0  0  0
   20.9314   25.4789   37.1926 C   0  0  0  0  0  0  0  0  0  0  0  0
   20.0205   26.0180   36.2809 C   0  0  0  0  0  0  0  0  0  0  0  0
   18.6559   25.9375   36.5715 O   0  0  0  0  0  0  0  0  0  0  0  0
   17.8048   27.0797   36.5976 C   0  0  0  0  0  0  0  0  0  0  0  0
   17.4588   27.5609   35.1922 C   0  0  0  0  0  0  0  0  0  0  0  0
   18.6495   28.1304   34.5269 N   0  0  0  0  0  0  0  0  0  0  0  0
   18.2839   29.1138   33.4803 C   0  0  0  0  0  0  0  0  0  0  0  0
   17.4772   28.5128   32.3199 C   0  0  0  0  0  0  0  0  0  0  0  0
   19.5591   27.0807   34.0198 C   0  0  0  0  0  0  0  0  0  0  0  0
   20.5023   26.6227   35.1038 C   0  0  0  0  0  0  0  0  0  0  0  0
   21.8902   26.7036   34.9003 C   0  0  0  0  0  0  0  0  0  0  0  0
  1  2  1  0
  2  3  2  0
  2  4  1  0
  4  5  2  0
  5  6  1  0
  6  7  2  0
  7  8  1  0
  8  9  2  0
  9 10  1  0
 10 11  2  0
 11 12  1  0
 12 13  2  0
 13 14  1  0
  1 15  1  0
 15 16  2  0
 16 17  1  0
 17 18  2  0
 18 19  1  0
 19 20  1  0
 20 21  1  0
 21 22  1  0
 22 23  1  0
 23 24  1  0
 22 25  1  0
 25 26  1  0
 26 27  2  0
 13  4  1  0
 27 15  1  0
 12  7  1  0
 26 18  1  0
M  END
>  <AAScore>  (1) 
66.75799709371998

>  <RootName>  (1) 
./4ZLY/04_DeltaGEst/trajectory_04/rank_00/lead_0031

$$$$
