confid_1
     RDKit          3D

 27 30  0  0  0  0  0  0  0  0999 V2000
   24.6900   26.1200   35.5300 N   0  0  0  0  0  0  0  0  0  0  0  0
   25.6600   25.6700   34.6600 C   0  0  0  0  0  0  0  0  0  0  0  0
   25.2400   25.0100   33.7200 O   0  0  0  0  0  0  0  0  0  0  0  0
   27.0300   26.2200   34.8800 C   0  0  0  0  0  0  0  0  0  0  0  0
   27.3500   26.7300   36.0700 N   0  0  0  0  0  0  0  0  0  0  0  0
   28.5700   27.1800   36.3300 N   0  0  0  0  0  0  0  0  0  0  0  0
   29.5300   27.1100   35.3900 C   0  0  0  0  0  0  0  0  0  0  0  0
   30.8300   27.5700   35.6500 C   0  0  0  0  0  0  0  0  0  0  0  0
   31.8500   27.5400   34.6900 C   0  0  0  0  0  0  0  0  0  0  0  0
   31.5100   27.1200   33.4000 C   0  0  0  0  0  0  0  0  0  0  0  0
   30.2200   26.6300   33.1100 C   0  0  0  0  0  0  0  0  0  0  0  0
   29.2400   26.6600   34.1000 C   0  0  0  0  0  0  0  0  0  0  0  0
   27.9300   26.2600   33.8100 C   0  0  0  0  0  0  0  0  0  0  0  0
   27.5200   25.7100   32.6100 N   0  0  0  0  0  0  0  0  0  0  0  0
   31.1789   28.0691   37.0047 C   0  0  0  0  0  0  0  0  0  0  0  0
   31.1106   27.1615   38.0922 C   0  0  0  0  0  0  0  0  0  0  0  0
   31.4062   27.4564   39.4402 C   0  0  0  0  0  0  0  0  0  0  0  0
   31.2795   26.4258   40.3817 O   0  0  0  0  0  0  0  0  0  0  0  0
   31.3666   26.6552   41.7887 C   0  0  0  0  0  0  0  0  0  0  0  0
   32.4311   27.7136   42.0930 C   0  0  0  0  0  0  0  0  0  0  0  0
   32.4428   27.9815   43.4507 F   0  0  0  0  0  0  0  0  0  0  0  0
   33.6769   27.2347   41.7221 F   0  0  0  0  0  0  0  0  0  0  0  0
   32.1219   29.0024   41.3183 C   0  0  0  0  0  0  0  0  0  0  0  0
   31.8444   28.7201   39.8672 C   0  0  0  0  0  0  0  0  0  0  0  0
   31.9739   29.9474   38.7149 S   0  0  0  0  0  0  0  0  0  0  0  0
   31.5686   29.4094   37.1684 C   0  0  0  0  0  0  0  0  0  0  0  0
   31.6099   30.2093   36.1955 O   0  0  0  0  0  0  0  0  0  0  0  0
  1  2  1  0
  2  3  2  0
  2  4  1  0
  4  5  2  0
  5  6  1  0
  6  7  2  0
  7  8  1  0
  8  9  2  0
  9 10  1  0
 10 11  2  0
 11 12  1  0
 12 13  2  0
 13 14  1  0
  8 15  1  0
 15 16  2  0
 16 17  1  0
 17 18  1  0
 18 19  1  0
 19 20  1  0
 20 21  1  0
 20 22  1  0
 20 23  1  0
 23 24  1  0
 24 25  1  0
 25 26  1  0
 26 27  2  0
 13  4  1  0
 26 15  1  0
 12  7  1  0
 24 17  2  0
M  END
>  <AAScore>  (1) 
7.985807857111152

>  <RootName>  (1) 
./4ZLY/04_DeltaGEst/trajectory_02/rank_01/lead_0018

$$$$
