confid_2
     RDKit          3D

 31 35  0  0  0  0  0  0  0  0999 V2000
   24.5500   26.3900   36.2500 N   0  0  0  0  0  0  0  0  0  0  0  0
   25.6000   26.1300   35.4000 C   0  0  0  0  0  0  0  0  0  0  0  0
   25.4300   25.4300   34.4200 O   0  0  0  0  0  0  0  0  0  0  0  0
   26.9800   26.6300   35.7100 C   0  0  0  0  0  0  0  0  0  0  0  0
   27.3200   26.8200   36.9800 N   0  0  0  0  0  0  0  0  0  0  0  0
   28.4700   27.4000   37.3100 N   0  0  0  0  0  0  0  0  0  0  0  0
   29.4000   27.6300   36.3700 C   0  0  0  0  0  0  0  0  0  0  0  0
   30.6600   28.0500   36.8000 C   0  0  0  0  0  0  0  0  0  0  0  0
   31.5700   28.3600   35.7800 C   0  0  0  0  0  0  0  0  0  0  0  0
   31.3700   28.1000   34.4300 C   0  0  0  0  0  0  0  0  0  0  0  0
   30.1200   27.5900   34.0500 C   0  0  0  0  0  0  0  0  0  0  0  0
   29.1500   27.3400   35.0300 C   0  0  0  0  0  0  0  0  0  0  0  0
   27.8800   26.8900   34.6600 C   0  0  0  0  0  0  0  0  0  0  0  0
   27.4800   26.6100   33.3700 N   0  0  0  0  0  0  0  0  0  0  0  0
   23.1932   26.0052   35.9628 C   0  0  0  0  0  0  0  0  0  0  0  0
   22.7645   26.1363   34.7357 N   0  0  0  0  0  0  0  0  0  0  0  0
   21.5499   25.7766   34.0515 C   0  0  0  0  0  0  0  0  0  0  0  0
   20.8348   24.6974   34.3652 C   0  0  0  0  0  0  0  0  0  0  0  0
   20.0970   23.6320   33.6018 C   0  0  0  0  0  0  0  0  0  0  0  0
   20.0159   22.7353   34.6720 O   0  0  0  0  0  0  0  0  0  0  0  0
   20.5795   23.7204   35.4772 C   0  0  1  0  0  0  0  0  0  0  0  0
   21.8677   23.2946   36.1777 C   0  0  0  0  0  0  0  0  0  0  0  0
   22.0663   24.2577   37.3222 C   0  0  0  0  0  0  0  0  0  0  0  0
   22.3578   25.5606   37.1089 C   0  0  0  0  0  0  0  0  0  0  0  0
   22.1410   26.5295   38.2454 C   0  0  0  0  0  0  0  0  0  0  0  0
   22.7087   25.9700   39.5557 C   0  0  0  0  0  0  0  0  0  0  0  0
   22.3287   24.5586   39.7630 N   0  0  0  0  0  0  0  0  0  0  0  0
   21.6149   23.8193   38.7027 C   0  0  0  0  0  0  0  0  0  0  0  0
   22.5856   23.9221   41.0348 C   0  0  0  0  0  0  0  0  0  0  0  0
   22.2140   22.7330   41.2350 O   0  0  0  0  0  0  0  0  0  0  0  0
   23.2870   24.6447   42.1463 C   0  0  0  0  0  0  0  0  0  0  0  0
  1  2  1  0
  2  3  2  0
  2  4  1  0
  4  5  2  0
  5  6  1  0
  6  7  2  0
  7  8  1  0
  8  9  2  0
  9 10  1  0
 10 11  2  0
 11 12  1  0
 12 13  2  0
 13 14  1  0
  1 15  1  0
 15 16  2  0
 16 17  1  0
 17 18  2  0
 18 19  1  0
 19 20  1  0
 20 21  1  0
 21 22  1  6
 22 23  1  0
 23 24  2  0
 24 25  1  0
 25 26  1  0
 26 27  1  0
 27 28  1  0
 27 29  1  0
 29 30  2  0
 29 31  1  0
 13  4  1  0
 24 15  1  0
 12  7  1  0
 21 18  1  0
 28 23  1  0
M  END
>  <AAScore>  (1) 
12632.702554495834

>  <RootName>  (1) 
./4ZLY/04_DeltaGEst/trajectory_01/rank_00/lead_0164

$$$$
