confid_12
     RDKit          3D

 29 33  0  0  0  0  0  0  0  0999 V2000
   25.3300   26.2600   34.7600 N   0  0  0  0  0  0  0  0  0  0  0  0
   26.1200   25.9200   33.6900 C   0  0  0  0  0  0  0  0  0  0  0  0
   25.6300   25.1100   32.9400 O   0  0  0  0  0  0  0  0  0  0  0  0
   27.5200   26.3800   33.4600 C   0  0  0  0  0  0  0  0  0  0  0  0
   28.1600   26.6300   34.6100 N   0  0  0  0  0  0  0  0  0  0  0  0
   29.4800   26.8500   34.5700 N   0  0  0  0  0  0  0  0  0  0  0  0
   30.1900   26.7800   33.4400 C   0  0  0  0  0  0  0  0  0  0  0  0
   31.5600   27.0500   33.5000 C   0  0  0  0  0  0  0  0  0  0  0  0
   32.2700   27.2400   32.3100 C   0  0  0  0  0  0  0  0  0  0  0  0
   31.6100   27.2500   31.0800 C   0  0  0  0  0  0  0  0  0  0  0  0
   30.2700   26.8700   31.0600 C   0  0  0  0  0  0  0  0  0  0  0  0
   29.5100   26.6900   32.2300 C   0  0  0  0  0  0  0  0  0  0  0  0
   28.1400   26.4100   32.2000 C   0  0  0  0  0  0  0  0  0  0  0  0
   27.4300   26.1300   31.0500 N   0  0  0  0  0  0  0  0  0  0  0  0
   27.5834   24.8298   30.3894 C   0  0  0  0  0  0  0  0  0  0  0  0
   26.3683   24.5437   29.4968 C   0  0  0  0  0  0  0  0  0  0  0  0
   26.0839   25.6309   28.5203 N   0  0  0  0  0  0  0  0  0  0  0  0
   26.5810   25.3038   27.1684 C   0  0  0  0  0  0  0  0  0  0  0  0
   25.7204   24.2491   26.5300 C   0  0  0  0  0  0  0  0  0  0  0  0
   24.3727   24.2888   26.5401 N   0  0  0  0  0  0  0  0  0  0  0  0
   24.0524   23.1899   25.8211 C   0  0  0  0  0  0  0  0  0  0  0  0
   25.1337   22.5277   25.3647 N   0  0  0  0  0  0  0  0  0  0  0  0
   26.1756   23.1993   25.8186 N   0  0  0  0  0  0  0  0  0  0  0  0
   27.5616   22.8350   25.5504 C   0  0  0  0  0  0  0  0  0  0  0  0
   22.6462   22.7957   25.4967 C   0  0  0  0  0  0  0  0  0  0  0  0
   22.2641   21.3953   25.9505 C   0  0  0  0  0  0  0  0  0  0  0  0
   21.7461   22.6059   26.7076 C   0  0  0  0  0  0  0  0  0  0  0  0
   26.5531   26.9772   28.9334 C   0  0  0  0  0  0  0  0  0  0  0  0
   26.5673   27.1521   30.4541 C   0  0  0  0  0  0  0  0  0  0  0  0
  1  2  1  0
  2  3  2  0
  2  4  1  0
  4  5  2  0
  5  6  1  0
  6  7  2  0
  7  8  1  0
  8  9  2  0
  9 10  1  0
 10 11  2  0
 11 12  1  0
 12 13  2  0
 13 14  1  0
 14 15  1  0
 15 16  1  0
 16 17  1  0
 17 18  1  0
 18 19  1  0
 19 20  2  0
 20 21  1  0
 21 22  2  0
 22 23  1  0
 23 24  1  0
 21 25  1  0
 25 26  1  0
 26 27  1  0
 17 28  1  0
 28 29  1  0
 13  4  1  0
 29 14  1  0
 12  7  1  0
 23 19  1  0
 27 25  1  0
M  END
>  <AAScore>  (1) 
4.451341426418096

>  <RootName>  (1) 
./4ZLY/04_DeltaGEst/trajectory_03/rank_01/lead_0236

$$$$
