confid_6
     RDKit          3D

 28 31  0  0  0  0  0  0  0  0999 V2000
   24.5500   26.3900   36.2500 N   0  0  0  0  0  0  0  0  0  0  0  0
   25.6000   26.1300   35.4000 C   0  0  0  0  0  0  0  0  0  0  0  0
   25.4300   25.4300   34.4200 O   0  0  0  0  0  0  0  0  0  0  0  0
   26.9800   26.6300   35.7100 C   0  0  0  0  0  0  0  0  0  0  0  0
   27.3200   26.8200   36.9800 N   0  0  0  0  0  0  0  0  0  0  0  0
   28.4700   27.4000   37.3100 N   0  0  0  0  0  0  0  0  0  0  0  0
   29.4000   27.6300   36.3700 C   0  0  0  0  0  0  0  0  0  0  0  0
   30.6600   28.0500   36.8000 C   0  0  0  0  0  0  0  0  0  0  0  0
   31.5700   28.3600   35.7800 C   0  0  0  0  0  0  0  0  0  0  0  0
   31.3700   28.1000   34.4300 C   0  0  0  0  0  0  0  0  0  0  0  0
   30.1200   27.5900   34.0500 C   0  0  0  0  0  0  0  0  0  0  0  0
   29.1500   27.3400   35.0300 C   0  0  0  0  0  0  0  0  0  0  0  0
   27.8800   26.8900   34.6600 C   0  0  0  0  0  0  0  0  0  0  0  0
   27.4800   26.6100   33.3700 N   0  0  0  0  0  0  0  0  0  0  0  0
   31.0064   28.2793   38.2259 C   0  0  0  0  0  0  0  0  0  0  0  0
   30.7966   27.2787   39.1853 C   0  0  0  0  0  0  0  0  0  0  0  0
   31.1317   27.5002   40.5292 C   0  0  0  0  0  0  0  0  0  0  0  0
   30.9092   26.4212   41.5545 C   0  0  0  0  0  0  0  0  0  0  0  0
   32.1917   25.9170   42.0597 N   0  0  0  0  0  0  0  0  0  0  0  0
   32.9783   26.7052   42.9761 C   0  0  0  0  0  0  0  0  0  0  0  0
   33.4743   26.1559   43.9970 O   0  0  0  0  0  0  0  0  0  0  0  0
   33.3374   28.1414   42.6882 C   0  0  0  0  0  0  0  0  0  0  0  0
   32.1367   29.0115   42.3038 C   0  0  0  0  0  0  0  0  0  0  0  0
   31.6990   28.7363   40.8913 C   0  0  0  0  0  0  0  0  0  0  0  0
   31.9081   29.6859   39.9391 N   0  0  0  0  0  0  0  0  0  0  0  0
   31.5780   29.4912   38.6363 C   0  0  0  0  0  0  0  0  0  0  0  0
   32.5621   24.5185   41.8105 C   0  0  0  0  0  0  0  0  0  0  0  0
   31.8427   23.5836   42.7789 C   0  0  0  0  0  0  0  0  0  0  0  0
  1  2  1  0
  2  3  2  0
  2  4  1  0
  4  5  2  0
  5  6  1  0
  6  7  2  0
  7  8  1  0
  8  9  2  0
  9 10  1  0
 10 11  2  0
 11 12  1  0
 12 13  2  0
 13 14  1  0
  8 15  1  0
 15 16  2  0
 16 17  1  0
 17 18  1  0
 18 19  1  0
 19 20  1  0
 20 21  2  0
 20 22  1  0
 22 23  1  0
 23 24  1  0
 24 25  1  0
 25 26  2  0
 19 27  1  0
 27 28  1  0
 13  4  1  0
 26 15  1  0
 12  7  1  0
 24 17  2  0
M  END
>  <AAScore>  (1) 
82.83666607966946

>  <RootName>  (1) 
./4ZLY/04_DeltaGEst/trajectory_01/rank_01/lead_0107

$$$$
