confid_18
     RDKit          3D

 27 30  0  0  0  0  0  0  0  0999 V2000
   24.6900   26.1200   35.5300 N   0  0  0  0  0  0  0  0  0  0  0  0
   25.6600   25.6700   34.6600 C   0  0  0  0  0  0  0  0  0  0  0  0
   25.2400   25.0100   33.7200 O   0  0  0  0  0  0  0  0  0  0  0  0
   27.0300   26.2200   34.8800 C   0  0  0  0  0  0  0  0  0  0  0  0
   27.3500   26.7300   36.0700 N   0  0  0  0  0  0  0  0  0  0  0  0
   28.5700   27.1800   36.3300 N   0  0  0  0  0  0  0  0  0  0  0  0
   29.5300   27.1100   35.3900 C   0  0  0  0  0  0  0  0  0  0  0  0
   30.8300   27.5700   35.6500 C   0  0  0  0  0  0  0  0  0  0  0  0
   31.8500   27.5400   34.6900 C   0  0  0  0  0  0  0  0  0  0  0  0
   31.5100   27.1200   33.4000 C   0  0  0  0  0  0  0  0  0  0  0  0
   30.2200   26.6300   33.1100 C   0  0  0  0  0  0  0  0  0  0  0  0
   29.2400   26.6600   34.1000 C   0  0  0  0  0  0  0  0  0  0  0  0
   27.9300   26.2600   33.8100 C   0  0  0  0  0  0  0  0  0  0  0  0
   27.5200   25.7100   32.6100 N   0  0  0  0  0  0  0  0  0  0  0  0
   23.3311   26.4099   35.1582 C   0  0  0  0  0  0  0  0  0  0  0  0
   22.4232   26.7118   36.1229 N   0  0  0  0  0  0  0  0  0  0  0  0
   21.1353   27.0027   35.8090 C   0  0  0  0  0  0  0  0  0  0  0  0
   20.7180   26.9924   34.4739 C   0  0  0  0  0  0  0  0  0  0  0  0
   19.3027   27.3671   34.1165 C   0  0  0  0  0  0  0  0  0  0  0  0
   18.9396   26.8704   32.7752 N   0  0  0  0  0  0  0  0  0  0  0  0
   17.5905   27.3342   32.4171 C   0  0  0  0  0  0  0  0  0  0  0  0
   19.9213   27.3408   31.7798 C   0  0  0  0  0  0  0  0  0  0  0  0
   21.2875   26.6473   32.0108 C   0  0  0  0  0  0  0  0  0  0  0  0
   22.3555   27.3484   31.1464 C   0  0  0  0  0  0  0  0  0  0  0  0
   21.1937   25.1643   31.5989 C   0  0  0  0  0  0  0  0  0  0  0  0
   21.6755   26.7194   33.4792 C   0  0  0  0  0  0  0  0  0  0  0  0
   22.9498   26.4200   33.8523 N   0  0  0  0  0  0  0  0  0  0  0  0
  1  2  1  0
  2  3  2  0
  2  4  1  0
  4  5  2  0
  5  6  1  0
  6  7  2  0
  7  8  1  0
  8  9  2  0
  9 10  1  0
 10 11  2  0
 11 12  1  0
 12 13  2  0
 13 14  1  0
  1 15  1  0
 15 16  2  0
 16 17  1  0
 17 18  2  0
 18 19  1  0
 19 20  1  0
 20 21  1  0
 20 22  1  0
 22 23  1  0
 23 24  1  0
 23 25  1  0
 23 26  1  0
 26 27  2  0
 13  4  1  0
 27 15  1  0
 12  7  1  0
 26 18  1  0
M  END
>  <AAScore>  (1) 
6529.09648769029

>  <RootName>  (1) 
./4ZLY/04_DeltaGEst/trajectory_02/rank_00/lead_0425

$$$$
