confid_8
     RDKit          3D

 27 30  0  0  0  0  0  0  0  0999 V2000
   25.3300   26.2600   34.7600 N   0  0  0  0  0  0  0  0  0  0  0  0
   26.1200   25.9200   33.6900 C   0  0  0  0  0  0  0  0  0  0  0  0
   25.6300   25.1100   32.9400 O   0  0  0  0  0  0  0  0  0  0  0  0
   27.5200   26.3800   33.4600 C   0  0  0  0  0  0  0  0  0  0  0  0
   28.1600   26.6300   34.6100 N   0  0  0  0  0  0  0  0  0  0  0  0
   29.4800   26.8500   34.5700 N   0  0  0  0  0  0  0  0  0  0  0  0
   30.1900   26.7800   33.4400 C   0  0  0  0  0  0  0  0  0  0  0  0
   31.5600   27.0500   33.5000 C   0  0  0  0  0  0  0  0  0  0  0  0
   32.2700   27.2400   32.3100 C   0  0  0  0  0  0  0  0  0  0  0  0
   31.6100   27.2500   31.0800 C   0  0  0  0  0  0  0  0  0  0  0  0
   30.2700   26.8700   31.0600 C   0  0  0  0  0  0  0  0  0  0  0  0
   29.5100   26.6900   32.2300 C   0  0  0  0  0  0  0  0  0  0  0  0
   28.1400   26.4100   32.2000 C   0  0  0  0  0  0  0  0  0  0  0  0
   27.4300   26.1300   31.0500 N   0  0  0  0  0  0  0  0  0  0  0  0
   26.4691   27.1163   30.5373 C   0  0  0  0  0  0  0  0  0  0  0  0
   26.4044   27.1255   28.9914 C   0  0  0  0  0  0  0  0  0  0  0  0
   26.9770   25.9107   28.3532 N   0  0  0  0  0  0  0  0  0  0  0  0
   26.4446   25.7584   26.9813 C   0  0  0  0  0  0  0  0  0  0  0  0
   27.3110   24.8405   26.1693 C   0  0  0  0  0  0  0  0  0  0  0  0
   28.5739   25.1047   25.6678 C   0  0  0  0  0  0  0  0  0  0  0  0
   29.0438   23.9995   25.0504 N   0  0  0  0  0  0  0  0  0  0  0  0
   28.1137   23.0594   25.1481 N   0  0  0  0  0  0  0  0  0  0  0  0
   28.2872   21.6895   24.6726 C   0  0  0  0  0  0  0  0  0  0  0  0
   29.0199   20.8578   25.7212 C   0  0  0  0  0  0  0  0  0  0  0  0
   27.0509   23.5283   25.8325 C   0  0  0  0  0  0  0  0  0  0  0  0
   26.7067   24.7130   29.1700 C   0  0  0  0  0  0  0  0  0  0  0  0
   27.5435   24.7975   30.4441 C   0  0  0  0  0  0  0  0  0  0  0  0
  1  2  1  0
  2  3  2  0
  2  4  1  0
  4  5  2  0
  5  6  1  0
  6  7  2  0
  7  8  1  0
  8  9  2  0
  9 10  1  0
 10 11  2  0
 11 12  1  0
 12 13  2  0
 13 14  1  0
 14 15  1  0
 15 16  1  0
 16 17  1  0
 17 18  1  0
 18 19  1  0
 19 20  1  0
 20 21  2  0
 21 22  1  0
 22 23  1  0
 23 24  1  0
 22 25  1  0
 17 26  1  0
 26 27  1  0
 13  4  1  0
 27 14  1  0
 12  7  1  0
 25 19  2  0
M  END
>  <AAScore>  (1) 
1.492200837507541

>  <RootName>  (1) 
./4ZLY/04_DeltaGEst/trajectory_03/rank_01/lead_0426

$$$$
