confid_18
     RDKit          3D

 28 31  0  0  0  0  0  0  0  0999 V2000
   24.5500   26.3900   36.2500 N   0  0  0  0  0  0  0  0  0  0  0  0
   25.6000   26.1300   35.4000 C   0  0  0  0  0  0  0  0  0  0  0  0
   25.4300   25.4300   34.4200 O   0  0  0  0  0  0  0  0  0  0  0  0
   26.9800   26.6300   35.7100 C   0  0  0  0  0  0  0  0  0  0  0  0
   27.3200   26.8200   36.9800 N   0  0  0  0  0  0  0  0  0  0  0  0
   28.4700   27.4000   37.3100 N   0  0  0  0  0  0  0  0  0  0  0  0
   29.4000   27.6300   36.3700 C   0  0  0  0  0  0  0  0  0  0  0  0
   30.6600   28.0500   36.8000 C   0  0  0  0  0  0  0  0  0  0  0  0
   31.5700   28.3600   35.7800 C   0  0  0  0  0  0  0  0  0  0  0  0
   31.3700   28.1000   34.4300 C   0  0  0  0  0  0  0  0  0  0  0  0
   30.1200   27.5900   34.0500 C   0  0  0  0  0  0  0  0  0  0  0  0
   29.1500   27.3400   35.0300 C   0  0  0  0  0  0  0  0  0  0  0  0
   27.8800   26.8900   34.6600 C   0  0  0  0  0  0  0  0  0  0  0  0
   27.4800   26.6100   33.3700 N   0  0  0  0  0  0  0  0  0  0  0  0
   23.2028   25.8360   36.0448 C   0  0  0  0  0  0  0  0  0  0  0  0
   22.1541   26.6482   36.8402 C   0  0  0  0  0  0  0  0  0  0  0  0
   20.9089   25.7971   37.1212 C   0  0  0  0  0  0  0  0  0  0  0  0
   21.2105   24.6013   37.9541 N   0  0  0  0  0  0  0  0  0  0  0  0
   20.8455   24.8260   39.3691 C   0  0  0  0  0  0  0  0  0  0  0  0
   20.8720   23.5414   40.1424 C   0  0  0  0  0  0  0  0  0  0  0  0
   20.0100   22.4749   40.0115 C   0  0  0  0  0  0  0  0  0  0  0  0
   20.4320   21.5017   40.8405 N   0  0  0  0  0  0  0  0  0  0  0  0
   19.8458   20.1715   40.9664 C   0  0  0  0  0  0  0  0  0  0  0  0
   20.4548   19.2282   39.9366 C   0  0  0  0  0  0  0  0  0  0  0  0
   21.5313   21.8859   41.4721 N   0  0  0  0  0  0  0  0  0  0  0  0
   21.8196   23.1374   41.0636 C   0  0  0  0  0  0  0  0  0  0  0  0
   22.6119   24.1183   37.8288 C   0  0  0  0  0  0  0  0  0  0  0  0
   23.1688   24.3334   36.4169 C   0  0  0  0  0  0  0  0  0  0  0  0
  1  2  1  0
  2  3  2  0
  2  4  1  0
  4  5  2  0
  5  6  1  0
  6  7  2  0
  7  8  1  0
  8  9  2  0
  9 10  1  0
 10 11  2  0
 11 12  1  0
 12 13  2  0
 13 14  1  0
  1 15  1  0
 15 16  1  0
 16 17  1  0
 17 18  1  0
 18 19  1  0
 19 20  1  0
 20 21  2  0
 21 22  1  0
 22 23  1  0
 23 24  1  0
 22 25  1  0
 25 26  2  0
 18 27  1  0
 27 28  1  0
 13  4  1  0
 28 15  1  0
 12  7  1  0
 26 20  1  0
M  END
>  <AAScore>  (1) 
795.8054264972573

>  <RootName>  (1) 
./4ZLY/04_DeltaGEst/trajectory_01/rank_00/lead_0418

$$$$
