confid_18
     RDKit          3D

 31 34  0  0  0  0  0  0  0  0999 V2000
   24.5700   26.8800   35.5900 N   0  0  0  0  0  0  0  0  0  0  0  0
   25.5000   26.4000   34.6900 C   0  0  0  0  0  0  0  0  0  0  0  0
   25.1700   25.5200   33.9100 O   0  0  0  0  0  0  0  0  0  0  0  0
   26.8400   27.0200   34.7400 C   0  0  0  0  0  0  0  0  0  0  0  0
   27.3800   27.2800   35.9400 N   0  0  0  0  0  0  0  0  0  0  0  0
   28.6200   27.7400   36.0300 N   0  0  0  0  0  0  0  0  0  0  0  0
   29.3800   28.0000   34.9600 C   0  0  0  0  0  0  0  0  0  0  0  0
   30.6700   28.5000   35.1300 C   0  0  0  0  0  0  0  0  0  0  0  0
   31.5400   28.6100   34.0300 C   0  0  0  0  0  0  0  0  0  0  0  0
   31.0900   28.2200   32.7700 C   0  0  0  0  0  0  0  0  0  0  0  0
   29.8000   27.7000   32.6000 C   0  0  0  0  0  0  0  0  0  0  0  0
   28.9600   27.5500   33.7100 C   0  0  0  0  0  0  0  0  0  0  0  0
   27.6600   27.0300   33.5900 C   0  0  0  0  0  0  0  0  0  0  0  0
   27.1600   26.7400   32.3400 N   0  0  0  0  0  0  0  0  0  0  0  0
   23.1954   26.4451   35.6635 C   0  0  0  0  0  0  0  0  0  0  0  0
   22.8299   25.3469   35.0707 N   0  0  0  0  0  0  0  0  0  0  0  0
   21.5085   24.7995   34.9822 C   0  0  0  0  0  0  0  0  0  0  0  0
   20.5923   25.3065   34.1418 C   0  0  0  0  0  0  0  0  0  0  0  0
   19.4241   24.4637   33.6986 C   0  0  0  0  0  0  0  0  0  0  0  0
   18.8320   25.0396   32.4741 N   0  0  0  0  0  0  0  0  0  0  0  0
   19.8683   25.3085   31.4523 C   0  0  0  0  0  0  0  0  0  0  0  0
   20.8574   26.3943   31.9459 C   0  0  0  0  0  0  0  0  0  0  0  0
   20.8238   26.5197   33.4105 N   0  0  0  0  0  0  0  0  0  0  0  0
   20.4339   27.8040   34.0103 C   0  0  0  0  0  0  0  0  0  0  0  0
   21.6700   28.6520   34.3430 C   0  0  0  0  0  0  0  0  0  0  0  0
   22.0086   28.6699   35.8436 C   0  0  0  0  0  0  0  0  0  0  0  0
   22.2202   27.2786   36.4615 C   0  0  0  0  0  0  0  0  0  0  0  0
   17.6008   23.9802   31.8249 S   0  0  0  0  0  6  0  0  0  0  0  0
   16.8181   24.7268   30.7814 O   0  0  0  0  0  0  0  0  0  0  0  0
   16.6627   23.5529   32.9197 O   0  0  0  0  0  0  0  0  0  0  0  0
   18.2987   22.5252   31.0673 C   0  0  0  0  0  0  0  0  0  0  0  0
  1  2  1  0
  2  3  2  0
  2  4  1  0
  4  5  2  0
  5  6  1  0
  6  7  2  0
  7  8  1  0
  8  9  2  0
  9 10  1  0
 10 11  2  0
 11 12  1  0
 12 13  2  0
 13 14  1  0
  1 15  1  0
 15 16  2  0
 16 17  1  0
 17 18  2  0
 18 19  1  0
 19 20  1  0
 20 21  1  0
 21 22  1  0
 22 23  1  0
 23 24  1  0
 24 25  1  0
 25 26  1  0
 26 27  1  0
 20 28  1  0
 28 29  2  0
 28 30  2  0
 28 31  1  0
 13  4  1  0
 27 15  1  0
 12  7  1  0
 23 18  1  0
M  END
>  <AAScore>  (1) 
2721.850240381056

>  <RootName>  (1) 
./4ZLY/04_DeltaGEst/trajectory_05/rank_00/lead_0365

$$$$
