confid_5
     RDKit          3D

 30 35  0  0  0  0  0  0  0  0999 V2000
   25.3300   26.2600   34.7600 N   0  0  0  0  0  0  0  0  0  0  0  0
   26.1200   25.9200   33.6900 C   0  0  0  0  0  0  0  0  0  0  0  0
   25.6300   25.1100   32.9400 O   0  0  0  0  0  0  0  0  0  0  0  0
   27.5200   26.3800   33.4600 C   0  0  0  0  0  0  0  0  0  0  0  0
   28.1600   26.6300   34.6100 N   0  0  0  0  0  0  0  0  0  0  0  0
   29.4800   26.8500   34.5700 N   0  0  0  0  0  0  0  0  0  0  0  0
   30.1900   26.7800   33.4400 C   0  0  0  0  0  0  0  0  0  0  0  0
   31.5600   27.0500   33.5000 C   0  0  0  0  0  0  0  0  0  0  0  0
   32.2700   27.2400   32.3100 C   0  0  0  0  0  0  0  0  0  0  0  0
   31.6100   27.2500   31.0800 C   0  0  0  0  0  0  0  0  0  0  0  0
   30.2700   26.8700   31.0600 C   0  0  0  0  0  0  0  0  0  0  0  0
   29.5100   26.6900   32.2300 C   0  0  0  0  0  0  0  0  0  0  0  0
   28.1400   26.4100   32.2000 C   0  0  0  0  0  0  0  0  0  0  0  0
   27.4300   26.1300   31.0500 N   0  0  0  0  0  0  0  0  0  0  0  0
   24.0878   25.6247   35.1026 C   0  0  0  0  0  0  0  0  0  0  0  0
   23.9971   24.3208   35.0650 N   0  0  0  0  0  0  0  0  0  0  0  0
   22.9061   23.4128   35.3539 C   0  0  0  0  0  0  0  0  0  0  0  0
   21.8970   23.5902   36.2280 C   0  0  0  0  0  0  0  0  0  0  0  0
   20.8115   22.6819   36.7434 C   0  0  0  0  0  0  0  0  0  0  0  0
   20.2631   23.6049   37.6272 O   0  0  0  0  0  0  0  0  0  0  0  0
   21.2165   24.5275   37.2113 C   0  0  2  0  0  0  0  0  0  0  0  0
   20.5431   25.7353   36.5515 C   0  0  0  0  0  0  0  0  0  0  0  0
   21.6286   26.5420   35.9795 C   0  0  0  0  0  0  0  0  0  0  0  0
   22.9625   26.4687   35.4527 C   0  0  0  0  0  0  0  0  0  0  0  0
   22.3287   27.7026   35.6302 C   0  0  0  0  0  0  0  0  0  0  0  0
   21.8836   28.4117   34.3447 C   0  0  0  0  0  0  0  0  0  0  0  0
   22.8280   29.5909   34.0110 C   0  0  0  0  0  0  0  0  0  0  0  0
   23.9046   29.7234   34.9246 O   0  0  0  0  0  0  0  0  0  0  0  0
   23.4047   29.8883   36.2371 C   0  0  0  0  0  0  0  0  0  0  0  0
   22.8648   28.5598   36.7878 C   0  0  0  0  0  0  0  0  0  0  0  0
  1  2  1  0
  2  3  2  0
  2  4  1  0
  4  5  2  0
  5  6  1  0
  6  7  2  0
  7  8  1  0
  8  9  2  0
  9 10  1  0
 10 11  2  0
 11 12  1  0
 12 13  2  0
 13 14  1  0
  1 15  1  0
 15 16  2  0
 16 17  1  0
 17 18  2  0
 18 19  1  0
 19 20  1  0
 20 21  1  0
 21 22  1  6
 22 23  1  0
 23 24  2  0
 24 25  1  0
 25 26  1  0
 26 27  1  0
 27 28  1  0
 28 29  1  0
 29 30  1  0
 13  4  1  0
 24 15  1  0
 30 25  1  0
 12  7  1  0
 21 18  1  0
 25 23  1  0
M  END
>  <AAScore>  (1) 
2605.4545811609896

>  <RootName>  (1) 
./4ZLY/04_DeltaGEst/trajectory_03/rank_00/lead_0103

$$$$
