confid_4
     RDKit          3D

 30 33  0  0  0  0  0  0  0  0999 V2000
   24.5500   26.3900   36.2500 N   0  0  0  0  0  0  0  0  0  0  0  0
   25.6000   26.1300   35.4000 C   0  0  0  0  0  0  0  0  0  0  0  0
   25.4300   25.4300   34.4200 O   0  0  0  0  0  0  0  0  0  0  0  0
   26.9800   26.6300   35.7100 C   0  0  0  0  0  0  0  0  0  0  0  0
   27.3200   26.8200   36.9800 N   0  0  0  0  0  0  0  0  0  0  0  0
   28.4700   27.4000   37.3100 N   0  0  0  0  0  0  0  0  0  0  0  0
   29.4000   27.6300   36.3700 C   0  0  0  0  0  0  0  0  0  0  0  0
   30.6600   28.0500   36.8000 C   0  0  0  0  0  0  0  0  0  0  0  0
   31.5700   28.3600   35.7800 C   0  0  0  0  0  0  0  0  0  0  0  0
   31.3700   28.1000   34.4300 C   0  0  0  0  0  0  0  0  0  0  0  0
   30.1200   27.5900   34.0500 C   0  0  0  0  0  0  0  0  0  0  0  0
   29.1500   27.3400   35.0300 C   0  0  0  0  0  0  0  0  0  0  0  0
   27.8800   26.8900   34.6600 C   0  0  0  0  0  0  0  0  0  0  0  0
   27.4800   26.6100   33.3700 N   0  0  0  0  0  0  0  0  0  0  0  0
   23.1749   25.9555   35.9712 C   0  0  0  0  0  0  0  0  0  0  0  0
   22.5708   26.7898   34.8173 C   0  0  0  0  0  0  0  0  0  0  0  0
   21.0770   27.1068   35.0205 C   0  0  0  0  0  0  0  0  0  0  0  0
   20.3397   25.9828   35.6334 N   0  0  0  0  0  0  0  0  0  0  0  0
   20.1974   24.8411   34.7044 C   0  0  0  0  0  0  0  0  0  0  0  0
   19.0198   24.0028   35.0943 C   0  0  0  0  0  0  0  0  0  0  0  0
   19.0514   22.6618   35.4286 C   0  0  0  0  0  0  0  0  0  0  0  0
   17.7402   22.3487   35.7166 C   0  0  0  0  0  0  0  0  0  0  0  0
   16.9923   23.4555   35.5497 N   0  0  0  0  0  0  0  0  0  0  0  0
   17.7588   24.4689   35.1772 N   0  0  0  0  0  0  0  0  0  0  0  0
   15.5567   23.5556   35.7870 C   0  0  0  0  0  0  0  0  0  0  0  0
   15.0928   24.7974   35.3910 F   0  0  0  0  0  0  0  0  0  0  0  0
   14.8952   22.5777   35.0655 F   0  0  0  0  0  0  0  0  0  0  0  0
   15.2977   23.3836   37.1343 F   0  0  0  0  0  0  0  0  0  0  0  0
   20.8749   25.5826   36.9647 C   0  0  0  0  0  0  0  0  0  0  0  0
   22.3144   26.0616   37.2366 C   0  0  0  0  0  0  0  0  0  0  0  0
  1  2  1  0
  2  3  2  0
  2  4  1  0
  4  5  2  0
  5  6  1  0
  6  7  2  0
  7  8  1  0
  8  9  2  0
  9 10  1  0
 10 11  2  0
 11 12  1  0
 12 13  2  0
 13 14  1  0
  1 15  1  0
 15 16  1  0
 16 17  1  0
 17 18  1  0
 18 19  1  0
 19 20  1  0
 20 21  1  0
 21 22  2  0
 22 23  1  0
 23 24  1  0
 23 25  1  0
 25 26  1  0
 25 27  1  0
 25 28  1  0
 18 29  1  0
 29 30  1  0
 13  4  1  0
 30 15  1  0
 12  7  1  0
 24 20  2  0
M  END
>  <AAScore>  (1) 
987.7215288864758

>  <RootName>  (1) 
./4ZLY/04_DeltaGEst/trajectory_01/rank_00/lead_0477

$$$$
