confid_8
     RDKit          3D

 29 32  0  0  0  0  0  0  0  0999 V2000
   24.5500   26.3900   36.2500 N   0  0  0  0  0  0  0  0  0  0  0  0
   25.6000   26.1300   35.4000 C   0  0  0  0  0  0  0  0  0  0  0  0
   25.4300   25.4300   34.4200 O   0  0  0  0  0  0  0  0  0  0  0  0
   26.9800   26.6300   35.7100 C   0  0  0  0  0  0  0  0  0  0  0  0
   27.3200   26.8200   36.9800 N   0  0  0  0  0  0  0  0  0  0  0  0
   28.4700   27.4000   37.3100 N   0  0  0  0  0  0  0  0  0  0  0  0
   29.4000   27.6300   36.3700 C   0  0  0  0  0  0  0  0  0  0  0  0
   30.6600   28.0500   36.8000 C   0  0  0  0  0  0  0  0  0  0  0  0
   31.5700   28.3600   35.7800 C   0  0  0  0  0  0  0  0  0  0  0  0
   31.3700   28.1000   34.4300 C   0  0  0  0  0  0  0  0  0  0  0  0
   30.1200   27.5900   34.0500 C   0  0  0  0  0  0  0  0  0  0  0  0
   29.1500   27.3400   35.0300 C   0  0  0  0  0  0  0  0  0  0  0  0
   27.8800   26.8900   34.6600 C   0  0  0  0  0  0  0  0  0  0  0  0
   27.4800   26.6100   33.3700 N   0  0  0  0  0  0  0  0  0  0  0  0
   23.2222   25.7798   36.0942 C   0  0  0  0  0  0  0  0  0  0  0  0
   23.2718   24.2981   36.5396 C   0  0  0  0  0  0  0  0  0  0  0  0
   21.9954   23.8579   37.2637 C   0  0  0  0  0  0  0  0  0  0  0  0
   21.7654   24.7206   38.4328 N   0  0  0  0  0  0  0  0  0  0  0  0
   21.2764   24.2042   39.6925 C   0  0  0  0  0  0  0  0  0  0  0  0
   21.2339   24.9663   40.6974 O   0  0  0  0  0  0  0  0  0  0  0  0
   20.7435   22.7981   39.8449 C   0  0  0  0  0  0  0  0  0  0  0  0
   19.3476   22.4791   39.2920 C   0  0  0  0  0  0  0  0  0  0  0  0
   19.4273   22.3239   37.8911 O   0  0  0  0  0  0  0  0  0  0  0  0
   18.1369   22.2931   37.3111 C   0  0  0  0  0  0  0  0  0  0  0  0
   17.8604   23.6084   36.5935 C   0  0  0  0  0  0  0  0  0  0  0  0
   21.7619   21.6668   39.9022 C   0  0  0  0  0  0  0  0  0  0  0  0
   21.0859   22.1340   41.1794 C   0  0  0  0  0  0  0  0  0  0  0  0
   22.0213   26.1673   38.3191 C   0  0  0  0  0  0  0  0  0  0  0  0
   22.1560   26.6031   36.8552 C   0  0  0  0  0  0  0  0  0  0  0  0
  1  2  1  0
  2  3  2  0
  2  4  1  0
  4  5  2  0
  5  6  1  0
  6  7  2  0
  7  8  1  0
  8  9  2  0
  9 10  1  0
 10 11  2  0
 11 12  1  0
 12 13  2  0
 13 14  1  0
  1 15  1  0
 15 16  1  0
 16 17  1  0
 17 18  1  0
 18 19  1  0
 19 20  2  0
 19 21  1  0
 21 22  1  0
 22 23  1  0
 23 24  1  0
 24 25  1  0
 21 26  1  0
 26 27  1  0
 18 28  1  0
 28 29  1  0
 13  4  1  0
 29 15  1  0
 12  7  1  0
 27 21  1  0
M  END
>  <AAScore>  (1) 
547.1096326341454

>  <RootName>  (1) 
./4ZLY/04_DeltaGEst/trajectory_01/rank_00/lead_0488

$$$$
