confid_8
     RDKit          3D

 30 34  0  0  0  0  0  0  0  0999 V2000
   24.4800   26.1000   36.1300 N   0  0  0  0  0  0  0  0  0  0  0  0
   25.2500   26.2500   34.9900 C   0  0  0  0  0  0  0  0  0  0  0  0
   24.7400   25.7600   33.9900 O   0  0  0  0  0  0  0  0  0  0  0  0
   26.5900   26.8900   34.9600 C   0  0  0  0  0  0  0  0  0  0  0  0
   27.0600   27.2400   36.1600 N   0  0  0  0  0  0  0  0  0  0  0  0
   28.3000   27.7100   36.2400 N   0  0  0  0  0  0  0  0  0  0  0  0
   29.0500   27.9600   35.1500 C   0  0  0  0  0  0  0  0  0  0  0  0
   30.3400   28.4900   35.2600 C   0  0  0  0  0  0  0  0  0  0  0  0
   31.1100   28.8200   34.1400 C   0  0  0  0  0  0  0  0  0  0  0  0
   30.5200   28.6700   32.8800 C   0  0  0  0  0  0  0  0  0  0  0  0
   29.2900   28.0200   32.7700 C   0  0  0  0  0  0  0  0  0  0  0  0
   28.5200   27.7100   33.8900 C   0  0  0  0  0  0  0  0  0  0  0  0
   27.2700   27.0800   33.7600 C   0  0  0  0  0  0  0  0  0  0  0  0
   26.7500   26.8800   32.4900 N   0  0  0  0  0  0  0  0  0  0  0  0
   23.3753   25.1910   36.2563 C   0  0  0  0  0  0  0  0  0  0  0  0
   22.2938   25.5020   36.8928 N   0  0  0  0  0  0  0  0  0  0  0  0
   21.4262   24.3667   36.8184 C   0  0  0  0  0  0  0  0  0  0  0  0
   21.9941   23.3486   36.1726 C   0  0  0  0  0  0  0  0  0  0  0  0
   21.2901   22.1049   35.6727 C   0  0  0  0  0  0  0  0  0  0  0  0
   21.0984   22.2591   34.3137 F   0  0  0  0  0  0  0  0  0  0  0  0
   22.0481   20.7820   36.0270 C   0  0  0  0  0  0  0  0  0  0  0  0
   22.7839   20.1171   34.9198 N   0  0  0  0  0  0  0  0  0  0  0  0
   22.0780   19.8398   33.6631 C   0  0  0  0  0  0  0  0  0  0  0  0
   24.2437   20.3042   34.8127 C   0  0  0  0  0  0  0  0  0  0  0  0
   24.6300   21.7358   34.8953 C   0  0  0  0  0  0  0  0  0  0  0  0
   25.5623   22.7450   34.7878 C   0  0  0  0  0  0  0  0  0  0  0  0
   26.8854   23.1530   34.4618 N   0  0  0  0  0  0  0  0  0  0  0  0
   24.2635   23.0483   35.2772 C   0  0  0  0  0  0  0  0  0  0  0  0
   23.3097   23.8170   35.7723 C   0  0  0  0  0  0  0  0  0  0  0  0
   20.0340   22.0405   36.2568 F   0  0  0  0  0  0  0  0  0  0  0  0
  1  2  1  0
  2  3  2  0
  2  4  1  0
  4  5  2  0
  5  6  1  0
  6  7  2  0
  7  8  1  0
  8  9  2  0
  9 10  1  0
 10 11  2  0
 11 12  1  0
 12 13  2  0
 13 14  1  0
  1 15  1  0
 15 16  2  0
 16 17  1  0
 17 18  2  0
 18 19  1  0
 19 20  1  0
 19 21  1  0
 21 22  1  0
 22 23  1  0
 22 24  1  0
 24 25  1  0
 25 26  2  0
 26 27  1  0
 26 28  1  0
 28 29  2  0
 19 30  1  0
 13  4  1  0
 29 15  1  0
 12  7  1  0
 29 18  1  0
 28 25  1  0
M  END
>  <AAScore>  (1) 
1919.830146134636

>  <RootName>  (1) 
./4ZLY/04_DeltaGEst/trajectory_00/rank_00/lead_0471

$$$$
