confid_11
     RDKit          3D

 26 29  0  0  0  0  0  0  0  0999 V2000
   24.2000   26.2400   35.6900 N   0  0  0  0  0  0  0  0  0  0  0  0
   24.8500   26.2800   34.4800 C   0  0  0  0  0  0  0  0  0  0  0  0
   24.3100   25.7400   33.5400 O   0  0  0  0  0  0  0  0  0  0  0  0
   26.1800   26.9700   34.4700 C   0  0  0  0  0  0  0  0  0  0  0  0
   26.6500   27.6000   35.5500 N   0  0  0  0  0  0  0  0  0  0  0  0
   27.7900   28.2700   35.6200 N   0  0  0  0  0  0  0  0  0  0  0  0
   28.5400   28.3000   34.5100 C   0  0  0  0  0  0  0  0  0  0  0  0
   29.7700   28.9400   34.5600 C   0  0  0  0  0  0  0  0  0  0  0  0
   30.7000   28.8900   33.5000 C   0  0  0  0  0  0  0  0  0  0  0  0
   30.3700   28.1400   32.3700 C   0  0  0  0  0  0  0  0  0  0  0  0
   29.1200   27.5200   32.2800 C   0  0  0  0  0  0  0  0  0  0  0  0
   28.2100   27.6100   33.3300 C   0  0  0  0  0  0  0  0  0  0  0  0
   26.9700   26.9700   33.3100 C   0  0  0  0  0  0  0  0  0  0  0  0
   26.5300   26.2400   32.2200 N   0  0  0  0  0  0  0  0  0  0  0  0
   30.1470   29.6592   35.7439 N   0  0  0  0  0  0  0  0  0  0  0  0
   30.3486   31.0952   35.7595 C   0  0  0  0  0  0  0  0  0  0  0  0
   30.7622   31.4337   37.1941 C   0  0  1  0  0  0  0  0  0  0  0  0
   31.2287   30.0934   37.8155 C   0  0  1  0  0  0  0  0  0  0  0  0
   30.7599   29.9416   39.5464 S   0  0  0  0  0  6  0  0  0  0  0  0
   31.2901   31.1062   40.3337 O   0  0  0  0  0  0  0  0  0  0  0  0
   29.2624   29.9068   39.6745 O   0  0  0  0  0  0  0  0  0  0  0  0
   31.4386   28.4372   40.2105 C   0  0  0  0  0  0  0  0  0  0  0  0
   30.5750   29.0002   36.9641 C   0  0  0  0  0  0  0  0  0  0  0  0
   31.7232   32.6554   37.2280 C   0  0  0  0  0  0  0  0  0  0  0  0
   33.1114   32.4511   36.6326 C   0  0  0  0  0  0  0  0  0  0  0  0
   32.9517   32.6534   38.1320 C   0  0  0  0  0  0  0  0  0  0  0  0
  1  2  1  0
  2  3  2  0
  2  4  1  0
  4  5  2  0
  5  6  1  0
  6  7  2  0
  7  8  1  0
  8  9  2  0
  9 10  1  0
 10 11  2  0
 11 12  1  0
 12 13  2  0
 13 14  1  0
  8 15  1  0
 15 16  1  0
 16 17  1  0
 17 18  1  0
 18 19  1  1
 19 20  2  0
 19 21  2  0
 19 22  1  0
 18 23  1  0
 17 24  1  6
 24 25  1  0
 25 26  1  0
 13  4  1  0
 23 15  1  0
 26 24  1  0
 12  7  1  0
M  END
>  <AAScore>  (1) 
-8.41515433657276

>  <RootName>  (1) 
./4ZLY/04_DeltaGEst/trajectory_04/rank_01/lead_0403

$$$$
