confid_16
     RDKit          3D

 28 31  0  0  0  0  0  0  0  0999 V2000
   24.5500   26.3900   36.2500 N   0  0  0  0  0  0  0  0  0  0  0  0
   25.6000   26.1300   35.4000 C   0  0  0  0  0  0  0  0  0  0  0  0
   25.4300   25.4300   34.4200 O   0  0  0  0  0  0  0  0  0  0  0  0
   26.9800   26.6300   35.7100 C   0  0  0  0  0  0  0  0  0  0  0  0
   27.3200   26.8200   36.9800 N   0  0  0  0  0  0  0  0  0  0  0  0
   28.4700   27.4000   37.3100 N   0  0  0  0  0  0  0  0  0  0  0  0
   29.4000   27.6300   36.3700 C   0  0  0  0  0  0  0  0  0  0  0  0
   30.6600   28.0500   36.8000 C   0  0  0  0  0  0  0  0  0  0  0  0
   31.5700   28.3600   35.7800 C   0  0  0  0  0  0  0  0  0  0  0  0
   31.3700   28.1000   34.4300 C   0  0  0  0  0  0  0  0  0  0  0  0
   30.1200   27.5900   34.0500 C   0  0  0  0  0  0  0  0  0  0  0  0
   29.1500   27.3400   35.0300 C   0  0  0  0  0  0  0  0  0  0  0  0
   27.8800   26.8900   34.6600 C   0  0  0  0  0  0  0  0  0  0  0  0
   27.4800   26.6100   33.3700 N   0  0  0  0  0  0  0  0  0  0  0  0
   23.1631   26.2210   35.9093 C   0  0  0  0  0  0  0  0  0  0  0  0
   22.2797   25.8978   36.8902 N   0  0  0  0  0  0  0  0  0  0  0  0
   20.9522   25.7459   36.6490 C   0  0  0  0  0  0  0  0  0  0  0  0
   20.4374   25.9378   35.3579 C   0  0  0  0  0  0  0  0  0  0  0  0
   18.9660   25.7158   35.0944 C   0  0  0  0  0  0  0  0  0  0  0  0
   18.7473   24.4837   34.2077 C   0  0  0  0  0  0  0  0  0  0  0  0
   18.9673   24.7866   32.7847 N   0  0  0  0  0  0  0  0  0  0  0  0
   20.2396   25.2827   32.3329 C   0  0  0  0  0  0  0  0  0  0  0  0
   20.8473   24.6918   31.3998 O   0  0  0  0  0  0  0  0  0  0  0  0
   20.8254   26.5327   32.9185 C   0  0  0  0  0  0  0  0  0  0  0  0
   21.3249   26.2937   34.3200 C   0  0  0  0  0  0  0  0  0  0  0  0
   22.6911   26.4424   34.6054 C   0  0  0  0  0  0  0  0  0  0  0  0
   17.9415   24.4539   31.7874 C   0  0  0  0  0  0  0  0  0  0  0  0
   17.3416   25.7269   31.2012 C   0  0  0  0  0  0  0  0  0  0  0  0
  1  2  1  0
  2  3  2  0
  2  4  1  0
  4  5  2  0
  5  6  1  0
  6  7  2  0
  7  8  1  0
  8  9  2  0
  9 10  1  0
 10 11  2  0
 11 12  1  0
 12 13  2  0
 13 14  1  0
  1 15  1  0
 15 16  2  0
 16 17  1  0
 17 18  2  0
 18 19  1  0
 19 20  1  0
 20 21  1  0
 21 22  1  0
 22 23  2  0
 22 24  1  0
 24 25  1  0
 25 26  2  0
 21 27  1  0
 27 28  1  0
 13  4  1  0
 26 15  1  0
 12  7  1  0
 25 18  1  0
M  END
>  <AAScore>  (1) 
2233.423575038516

>  <RootName>  (1) 
./4ZLY/04_DeltaGEst/trajectory_01/rank_00/lead_0207

$$$$
