confid_2
     RDKit          3D

 29 32  0  0  0  0  0  0  0  0999 V2000
   24.5700   26.8800   35.5900 N   0  0  0  0  0  0  0  0  0  0  0  0
   25.5000   26.4000   34.6900 C   0  0  0  0  0  0  0  0  0  0  0  0
   25.1700   25.5200   33.9100 O   0  0  0  0  0  0  0  0  0  0  0  0
   26.8400   27.0200   34.7400 C   0  0  0  0  0  0  0  0  0  0  0  0
   27.3800   27.2800   35.9400 N   0  0  0  0  0  0  0  0  0  0  0  0
   28.6200   27.7400   36.0300 N   0  0  0  0  0  0  0  0  0  0  0  0
   29.3800   28.0000   34.9600 C   0  0  0  0  0  0  0  0  0  0  0  0
   30.6700   28.5000   35.1300 C   0  0  0  0  0  0  0  0  0  0  0  0
   31.5400   28.6100   34.0300 C   0  0  0  0  0  0  0  0  0  0  0  0
   31.0900   28.2200   32.7700 C   0  0  0  0  0  0  0  0  0  0  0  0
   29.8000   27.7000   32.6000 C   0  0  0  0  0  0  0  0  0  0  0  0
   28.9600   27.5500   33.7100 C   0  0  0  0  0  0  0  0  0  0  0  0
   27.6600   27.0300   33.5900 C   0  0  0  0  0  0  0  0  0  0  0  0
   27.1600   26.7400   32.3400 N   0  0  0  0  0  0  0  0  0  0  0  0
   33.1621   29.2651   34.2290 S   0  0  0  0  0  6  0  0  0  0  0  0
   34.1165   28.5023   33.3533 O   0  0  0  0  0  0  0  0  0  0  0  0
   33.5992   29.1153   35.6602 O   0  0  0  0  0  0  0  0  0  0  0  0
   33.1692   30.9981   33.7612 C   0  0  1  0  0  0  0  0  0  0  0  0
   32.2659   31.8502   34.6593 C   0  0  0  0  0  0  0  0  0  0  0  0
   33.0723   32.9342   35.2529 N   0  0  0  0  0  0  0  0  0  0  0  0
   33.3870   32.6503   36.6720 C   0  0  1  0  0  0  0  0  0  0  0  0
   34.0153   33.8535   37.3895 C   0  0  0  0  0  0  0  0  0  0  0  0
   32.7691   33.9816   38.2768 C   0  0  2  0  0  0  0  0  0  0  0  0
   31.9619   35.3032   38.1100 C   0  0  0  0  0  0  0  0  0  0  0  0
   31.6230   35.7330   36.6739 C   0  0  0  0  0  0  0  0  0  0  0  0
   33.0813   33.7115   39.7606 C   0  0  0  0  0  0  0  0  0  0  0  0
   32.1559   32.7572   37.5836 C   0  0  0  0  0  0  0  0  0  0  0  0
   34.2991   32.9950   34.4436 C   0  0  0  0  0  0  0  0  0  0  0  0
   34.5514   31.6103   33.8835 C   0  0  0  0  0  0  0  0  0  0  0  0
  1  2  1  0
  2  3  2  0
  2  4  1  0
  4  5  2  0
  5  6  1  0
  6  7  2  0
  7  8  1  0
  8  9  2  0
  9 10  1  0
 10 11  2  0
 11 12  1  0
 12 13  2  0
 13 14  1  0
  9 15  1  0
 15 16  2  0
 15 17  2  0
 18 15  1  1
 18 19  1  0
 19 20  1  0
 21 20  1  6
 21 22  1  0
 22 23  1  0
 23 24  1  0
 24 25  1  0
 23 26  1  1
 23 27  1  0
 20 28  1  0
 28 29  1  0
 13  4  1  0
 29 18  1  0
 12  7  1  0
 27 21  1  0
M  END
>  <AAScore>  (1) 
-6.400482195770783

>  <RootName>  (1) 
./4ZLY/04_DeltaGEst/trajectory_05/rank_01/lead_0377

$$$$
