confid_13
     RDKit          3D

 27 31  0  0  0  0  0  0  0  0999 V2000
   24.2000   26.2400   35.6900 N   0  0  0  0  0  0  0  0  0  0  0  0
   24.8500   26.2800   34.4800 C   0  0  0  0  0  0  0  0  0  0  0  0
   24.3100   25.7400   33.5400 O   0  0  0  0  0  0  0  0  0  0  0  0
   26.1800   26.9700   34.4700 C   0  0  0  0  0  0  0  0  0  0  0  0
   26.6500   27.6000   35.5500 N   0  0  0  0  0  0  0  0  0  0  0  0
   27.7900   28.2700   35.6200 N   0  0  0  0  0  0  0  0  0  0  0  0
   28.5400   28.3000   34.5100 C   0  0  0  0  0  0  0  0  0  0  0  0
   29.7700   28.9400   34.5600 C   0  0  0  0  0  0  0  0  0  0  0  0
   30.7000   28.8900   33.5000 C   0  0  0  0  0  0  0  0  0  0  0  0
   30.3700   28.1400   32.3700 C   0  0  0  0  0  0  0  0  0  0  0  0
   29.1200   27.5200   32.2800 C   0  0  0  0  0  0  0  0  0  0  0  0
   28.2100   27.6100   33.3300 C   0  0  0  0  0  0  0  0  0  0  0  0
   26.9700   26.9700   33.3100 C   0  0  0  0  0  0  0  0  0  0  0  0
   26.5300   26.2400   32.2200 N   0  0  0  0  0  0  0  0  0  0  0  0
   30.1402   29.6762   35.7385 N   0  0  0  0  0  0  0  0  0  0  0  0
   29.6975   31.0707   35.8793 C   0  0  0  0  0  0  0  0  0  0  0  0
   28.7867   31.2549   37.0983 C   0  0  0  0  0  0  0  0  0  0  0  0
   29.5626   31.1961   38.3822 C   0  0  0  0  0  0  0  0  0  0  0  0
   30.3443   30.1058   38.7983 C   0  0  0  0  0  0  0  0  0  0  0  0
   31.0888   30.4539   40.2969 S   0  0  0  0  0  0  0  0  0  0  0  0
   30.3871   31.9724   40.3959 C   0  0  0  0  0  0  0  0  0  0  0  0
   30.4210   33.1482   41.2958 C   0  0  0  0  0  0  0  0  0  0  0  0
   29.5508   34.0933   40.5741 N   0  0  0  0  0  0  0  0  0  0  0  0
   29.1087   33.5640   39.4691 C   0  0  0  0  0  0  0  0  0  0  0  0
   29.6217   32.2208   39.3240 C   0  0  0  0  0  0  0  0  0  0  0  0
   30.5415   28.8352   38.0312 C   0  0  0  0  0  0  0  0  0  0  0  0
   31.1430   29.1092   36.6504 C   0  0  0  0  0  0  0  0  0  0  0  0
  1  2  1  0
  2  3  2  0
  2  4  1  0
  4  5  2  0
  5  6  1  0
  6  7  2  0
  7  8  1  0
  8  9  2  0
  9 10  1  0
 10 11  2  0
 11 12  1  0
 12 13  2  0
 13 14  1  0
  8 15  1  0
 15 16  1  0
 16 17  1  0
 17 18  1  0
 18 19  2  0
 19 20  1  0
 20 21  1  0
 21 22  1  0
 22 23  1  0
 23 24  2  0
 24 25  1  0
 19 26  1  0
 26 27  1  0
 13  4  1  0
 27 15  1  0
 12  7  1  0
 25 18  1  0
 25 21  2  0
M  END
>  <AAScore>  (1) 
-8.71761191762974

>  <RootName>  (1) 
./4ZLY/04_DeltaGEst/trajectory_04/rank_01/lead_0072

$$$$
