confid_12
     RDKit          3D

 27 30  0  0  0  0  0  0  0  0999 V2000
   24.2000   26.2400   35.6900 N   0  0  0  0  0  0  0  0  0  0  0  0
   24.8500   26.2800   34.4800 C   0  0  0  0  0  0  0  0  0  0  0  0
   24.3100   25.7400   33.5400 O   0  0  0  0  0  0  0  0  0  0  0  0
   26.1800   26.9700   34.4700 C   0  0  0  0  0  0  0  0  0  0  0  0
   26.6500   27.6000   35.5500 N   0  0  0  0  0  0  0  0  0  0  0  0
   27.7900   28.2700   35.6200 N   0  0  0  0  0  0  0  0  0  0  0  0
   28.5400   28.3000   34.5100 C   0  0  0  0  0  0  0  0  0  0  0  0
   29.7700   28.9400   34.5600 C   0  0  0  0  0  0  0  0  0  0  0  0
   30.7000   28.8900   33.5000 C   0  0  0  0  0  0  0  0  0  0  0  0
   30.3700   28.1400   32.3700 C   0  0  0  0  0  0  0  0  0  0  0  0
   29.1200   27.5200   32.2800 C   0  0  0  0  0  0  0  0  0  0  0  0
   28.2100   27.6100   33.3300 C   0  0  0  0  0  0  0  0  0  0  0  0
   26.9700   26.9700   33.3100 C   0  0  0  0  0  0  0  0  0  0  0  0
   26.5300   26.2400   32.2200 N   0  0  0  0  0  0  0  0  0  0  0  0
   30.1316   29.6755   35.7419 N   0  0  0  0  0  0  0  0  0  0  0  0
   31.3540   29.3171   36.4772 C   0  0  0  0  0  0  0  0  0  0  0  0
   31.1297   29.4491   37.9880 C   0  0  0  0  0  0  0  0  0  0  0  0
   30.4263   30.7348   38.2809 C   0  0  0  0  0  0  0  0  0  0  0  0
   30.3301   31.3821   39.4933 C   0  0  0  0  0  0  0  0  0  0  0  0
   29.4994   32.4607   39.2260 C   0  0  0  0  0  0  0  0  0  0  0  0
   29.0973   32.4321   37.9369 N   0  0  0  0  0  0  0  0  0  0  0  0
   29.6665   31.3768   37.3789 N   0  0  0  0  0  0  0  0  0  0  0  0
   29.5075   30.9861   35.9809 C   0  0  0  0  0  0  0  0  0  0  0  0
   29.0113   33.4552   40.2304 C   0  0  0  0  0  0  0  0  0  0  0  0
   27.9591   32.9104   40.9418 F   0  0  0  0  0  0  0  0  0  0  0  0
   30.0318   33.7836   41.1042 F   0  0  0  0  0  0  0  0  0  0  0  0
   28.5813   34.6030   39.5896 F   0  0  0  0  0  0  0  0  0  0  0  0
  1  2  1  0
  2  3  2  0
  2  4  1  0
  4  5  2  0
  5  6  1  0
  6  7  2  0
  7  8  1  0
  8  9  2  0
  9 10  1  0
 10 11  2  0
 11 12  1  0
 12 13  2  0
 13 14  1  0
  8 15  1  0
 15 16  1  0
 16 17  1  0
 17 18  1  0
 18 19  2  0
 19 20  1  0
 20 21  2  0
 21 22  1  0
 22 23  1  0
 20 24  1  0
 24 25  1  0
 24 26  1  0
 24 27  1  0
 13  4  1  0
 23 15  1  0
 12  7  1  0
 22 18  1  0
M  END
>  <AAScore>  (1) 
-6.528426120607083

>  <RootName>  (1) 
./4ZLY/04_DeltaGEst/trajectory_04/rank_01/lead_0164

$$$$
