confid_11
     RDKit          3D

 28 31  0  0  0  0  0  0  0  0999 V2000
   24.5700   26.8800   35.5900 N   0  0  0  0  0  0  0  0  0  0  0  0
   25.5000   26.4000   34.6900 C   0  0  0  0  0  0  0  0  0  0  0  0
   25.1700   25.5200   33.9100 O   0  0  0  0  0  0  0  0  0  0  0  0
   26.8400   27.0200   34.7400 C   0  0  0  0  0  0  0  0  0  0  0  0
   27.3800   27.2800   35.9400 N   0  0  0  0  0  0  0  0  0  0  0  0
   28.6200   27.7400   36.0300 N   0  0  0  0  0  0  0  0  0  0  0  0
   29.3800   28.0000   34.9600 C   0  0  0  0  0  0  0  0  0  0  0  0
   30.6700   28.5000   35.1300 C   0  0  0  0  0  0  0  0  0  0  0  0
   31.5400   28.6100   34.0300 C   0  0  0  0  0  0  0  0  0  0  0  0
   31.0900   28.2200   32.7700 C   0  0  0  0  0  0  0  0  0  0  0  0
   29.8000   27.7000   32.6000 C   0  0  0  0  0  0  0  0  0  0  0  0
   28.9600   27.5500   33.7100 C   0  0  0  0  0  0  0  0  0  0  0  0
   27.6600   27.0300   33.5900 C   0  0  0  0  0  0  0  0  0  0  0  0
   27.1600   26.7400   32.3400 N   0  0  0  0  0  0  0  0  0  0  0  0
   23.3928   26.1656   36.0041 C   0  0  0  0  0  0  0  0  0  0  0  0
   22.2803   26.8687   36.3416 N   0  0  0  0  0  0  0  0  0  0  0  0
   21.1437   26.2636   36.7716 C   0  0  0  0  0  0  0  0  0  0  0  0
   21.0843   24.8669   36.8938 C   0  0  0  0  0  0  0  0  0  0  0  0
   19.8460   24.2135   37.4664 C   0  0  0  0  0  0  0  0  0  0  0  0
   19.0562   23.4846   36.4426 N   0  0  0  0  0  0  0  0  0  0  0  0
   17.9407   22.7341   37.0671 C   0  0  0  0  0  0  0  0  0  0  0  0
   16.8080   23.6702   37.4878 C   0  0  0  0  0  0  0  0  0  0  0  0
   19.8727   22.6061   35.5643 C   0  0  0  0  0  0  0  0  0  0  0  0
   20.9579   21.8090   36.3169 C   0  0  0  0  0  0  0  0  0  0  0  0
   22.2054   22.6171   36.5809 C   0  0  0  0  0  0  0  0  0  0  0  0
   23.2751   21.9964   36.8264 O   0  0  0  0  0  0  0  0  0  0  0  0
   22.2208   24.1034   36.5445 C   0  0  0  0  0  0  0  0  0  0  0  0
   23.3838   24.7665   36.1207 C   0  0  0  0  0  0  0  0  0  0  0  0
  1  2  1  0
  2  3  2  0
  2  4  1  0
  4  5  2  0
  5  6  1  0
  6  7  2  0
  7  8  1  0
  8  9  2  0
  9 10  1  0
 10 11  2  0
 11 12  1  0
 12 13  2  0
 13 14  1  0
  1 15  1  0
 15 16  2  0
 16 17  1  0
 17 18  2  0
 18 19  1  0
 19 20  1  0
 20 21  1  0
 21 22  1  0
 20 23  1  0
 23 24  1  0
 24 25  1  0
 25 26  2  0
 25 27  1  0
 27 28  2  0
 13  4  1  0
 28 15  1  0
 12  7  1  0
 27 18  1  0
M  END
>  <AAScore>  (1) 
1474.2115285440284

>  <RootName>  (1) 
./4ZLY/04_DeltaGEst/trajectory_05/rank_00/lead_0346

$$$$
