confid_8
     RDKit          3D

 30 33  0  0  0  0  0  0  0  0999 V2000
   24.5500   26.3900   36.2500 N   0  0  0  0  0  0  0  0  0  0  0  0
   25.6000   26.1300   35.4000 C   0  0  0  0  0  0  0  0  0  0  0  0
   25.4300   25.4300   34.4200 O   0  0  0  0  0  0  0  0  0  0  0  0
   26.9800   26.6300   35.7100 C   0  0  0  0  0  0  0  0  0  0  0  0
   27.3200   26.8200   36.9800 N   0  0  0  0  0  0  0  0  0  0  0  0
   28.4700   27.4000   37.3100 N   0  0  0  0  0  0  0  0  0  0  0  0
   29.4000   27.6300   36.3700 C   0  0  0  0  0  0  0  0  0  0  0  0
   30.6600   28.0500   36.8000 C   0  0  0  0  0  0  0  0  0  0  0  0
   31.5700   28.3600   35.7800 C   0  0  0  0  0  0  0  0  0  0  0  0
   31.3700   28.1000   34.4300 C   0  0  0  0  0  0  0  0  0  0  0  0
   30.1200   27.5900   34.0500 C   0  0  0  0  0  0  0  0  0  0  0  0
   29.1500   27.3400   35.0300 C   0  0  0  0  0  0  0  0  0  0  0  0
   27.8800   26.8900   34.6600 C   0  0  0  0  0  0  0  0  0  0  0  0
   27.4800   26.6100   33.3700 N   0  0  0  0  0  0  0  0  0  0  0  0
   30.9952   28.2786   38.1841 N   0  0  0  0  0  0  0  0  0  0  0  0
   30.1297   29.1108   39.0321 C   0  0  0  0  0  0  0  0  0  0  0  0
   30.9347   30.0019   39.9864 C   0  0  0  0  0  0  0  0  0  0  0  0
   32.0837   30.7318   39.2704 C   0  0  0  0  0  0  0  0  0  0  0  0
   33.1489   29.8369   38.7610 N   0  0  0  0  0  0  0  0  0  0  0  0
   34.2690   30.4290   38.0540 C   0  0  0  0  0  0  0  0  0  0  0  0
   35.4049   29.8698   38.0861 O   0  0  0  0  0  0  0  0  0  0  0  0
   34.1474   31.7039   37.3143 C   0  0  0  0  0  0  0  0  0  0  0  0
   33.1240   31.9044   36.3705 C   0  0  0  0  0  0  0  0  0  0  0  0
   33.0495   33.1052   35.6547 C   0  0  0  0  0  0  0  0  0  0  0  0
   33.9993   34.1106   35.8696 C   0  0  0  0  0  0  0  0  0  0  0  0
   33.8957   35.6192   34.9795 Cl  0  0  0  0  0  0  0  0  0  0  0  0
   35.0309   33.9113   36.7947 C   0  0  0  0  0  0  0  0  0  0  0  0
   35.1087   32.7113   37.5094 C   0  0  0  0  0  0  0  0  0  0  0  0
   33.2626   28.4440   39.2485 C   0  0  0  0  0  0  0  0  0  0  0  0
   32.1134   27.5313   38.7719 C   0  0  0  0  0  0  0  0  0  0  0  0
  1  2  1  0
  2  3  2  0
  2  4  1  0
  4  5  2  0
  5  6  1  0
  6  7  2  0
  7  8  1  0
  8  9  2  0
  9 10  1  0
 10 11  2  0
 11 12  1  0
 12 13  2  0
 13 14  1  0
  8 15  1  0
 15 16  1  0
 16 17  1  0
 17 18  1  0
 18 19  1  0
 19 20  1  0
 20 21  2  0
 20 22  1  0
 22 23  2  0
 23 24  1  0
 24 25  2  0
 25 26  1  0
 25 27  1  0
 27 28  2  0
 19 29  1  0
 29 30  1  0
 13  4  1  0
 30 15  1  0
 12  7  1  0
 28 22  1  0
M  END
>  <AAScore>  (1) 
1621.6709826668389

>  <RootName>  (1) 
./4ZLY/04_DeltaGEst/trajectory_01/rank_01/lead_0350

$$$$
