confid_18
     RDKit          3D

 27 30  0  0  0  0  0  0  0  0999 V2000
   24.6900   26.1200   35.5300 N   0  0  0  0  0  0  0  0  0  0  0  0
   25.6600   25.6700   34.6600 C   0  0  0  0  0  0  0  0  0  0  0  0
   25.2400   25.0100   33.7200 O   0  0  0  0  0  0  0  0  0  0  0  0
   27.0300   26.2200   34.8800 C   0  0  0  0  0  0  0  0  0  0  0  0
   27.3500   26.7300   36.0700 N   0  0  0  0  0  0  0  0  0  0  0  0
   28.5700   27.1800   36.3300 N   0  0  0  0  0  0  0  0  0  0  0  0
   29.5300   27.1100   35.3900 C   0  0  0  0  0  0  0  0  0  0  0  0
   30.8300   27.5700   35.6500 C   0  0  0  0  0  0  0  0  0  0  0  0
   31.8500   27.5400   34.6900 C   0  0  0  0  0  0  0  0  0  0  0  0
   31.5100   27.1200   33.4000 C   0  0  0  0  0  0  0  0  0  0  0  0
   30.2200   26.6300   33.1100 C   0  0  0  0  0  0  0  0  0  0  0  0
   29.2400   26.6600   34.1000 C   0  0  0  0  0  0  0  0  0  0  0  0
   27.9300   26.2600   33.8100 C   0  0  0  0  0  0  0  0  0  0  0  0
   27.5200   25.7100   32.6100 N   0  0  0  0  0  0  0  0  0  0  0  0
   23.3179   26.3652   35.1735 C   0  0  0  0  0  0  0  0  0  0  0  0
   22.9236   26.3822   33.8779 N   0  0  0  0  0  0  0  0  0  0  0  0
   21.6357   26.6329   33.5440 C   0  0  0  0  0  0  0  0  0  0  0  0
   20.6648   26.8804   34.5314 C   0  0  0  0  0  0  0  0  0  0  0  0
   19.2816   27.2371   34.0222 C   0  0  0  0  0  0  0  0  0  0  0  0
   18.1634   26.9130   34.9209 N   0  0  0  0  0  0  0  0  0  0  0  0
   18.0190   25.4793   35.2593 C   0  0  0  0  0  0  0  0  0  0  0  0
   17.3527   24.7202   34.1163 C   0  0  0  0  0  0  0  0  0  0  0  0
   18.0896   27.8329   36.0641 C   0  0  0  0  0  0  0  0  0  0  0  0
   18.9811   27.4422   37.1958 C   0  0  0  0  0  0  0  0  0  0  0  0
   20.2641   27.0873   37.0997 C   0  0  0  0  0  0  0  0  0  0  0  0
   21.1007   26.8888   35.8879 C   0  0  0  0  0  0  0  0  0  0  0  0
   22.4109   26.6227   36.1472 N   0  0  0  0  0  0  0  0  0  0  0  0
  1  2  1  0
  2  3  2  0
  2  4  1  0
  4  5  2  0
  5  6  1  0
  6  7  2  0
  7  8  1  0
  8  9  2  0
  9 10  1  0
 10 11  2  0
 11 12  1  0
 12 13  2  0
 13 14  1  0
  1 15  1  0
 15 16  2  0
 16 17  1  0
 17 18  2  0
 18 19  1  0
 19 20  1  0
 20 21  1  0
 21 22  1  0
 20 23  1  0
 23 24  1  0
 24 25  2  0
 25 26  1  0
 26 27  2  0
 13  4  1  0
 27 15  1  0
 12  7  1  0
 26 18  1  0
M  END
>  <AAScore>  (1) 
6322.178815989903

>  <RootName>  (1) 
./4ZLY/04_DeltaGEst/trajectory_02/rank_00/lead_0196

$$$$
