confid_7
     RDKit          3D

 29 32  0  0  0  0  0  0  0  0999 V2000
   24.5500   26.3900   36.2500 N   0  0  0  0  0  0  0  0  0  0  0  0
   25.6000   26.1300   35.4000 C   0  0  0  0  0  0  0  0  0  0  0  0
   25.4300   25.4300   34.4200 O   0  0  0  0  0  0  0  0  0  0  0  0
   26.9800   26.6300   35.7100 C   0  0  0  0  0  0  0  0  0  0  0  0
   27.3200   26.8200   36.9800 N   0  0  0  0  0  0  0  0  0  0  0  0
   28.4700   27.4000   37.3100 N   0  0  0  0  0  0  0  0  0  0  0  0
   29.4000   27.6300   36.3700 C   0  0  0  0  0  0  0  0  0  0  0  0
   30.6600   28.0500   36.8000 C   0  0  0  0  0  0  0  0  0  0  0  0
   31.5700   28.3600   35.7800 C   0  0  0  0  0  0  0  0  0  0  0  0
   31.3700   28.1000   34.4300 C   0  0  0  0  0  0  0  0  0  0  0  0
   30.1200   27.5900   34.0500 C   0  0  0  0  0  0  0  0  0  0  0  0
   29.1500   27.3400   35.0300 C   0  0  0  0  0  0  0  0  0  0  0  0
   27.8800   26.8900   34.6600 C   0  0  0  0  0  0  0  0  0  0  0  0
   27.4800   26.6100   33.3700 N   0  0  0  0  0  0  0  0  0  0  0  0
   30.9878   28.2766   38.1886 N   0  0  0  0  0  0  0  0  0  0  0  0
   32.2238   27.6753   38.7321 C   0  0  0  0  0  0  0  0  0  0  0  0
   31.9752   26.6615   39.8714 C   0  0  0  0  0  0  0  0  0  0  0  0
   30.5840   26.1038   39.8612 C   0  0  0  0  0  0  0  0  0  0  0  0
   30.2065   24.9228   39.2577 C   0  0  0  0  0  0  0  0  0  0  0  0
   28.8315   24.8873   39.4123 C   0  0  0  0  0  0  0  0  0  0  0  0
   28.4183   25.9840   40.0792 N   0  0  0  0  0  0  0  0  0  0  0  0
   29.4812   26.7349   40.3256 N   0  0  0  0  0  0  0  0  0  0  0  0
   29.4014   27.9888   41.0886 C   0  0  0  0  0  0  0  0  0  0  0  0
   30.2091   29.1547   40.4816 C   0  0  0  0  0  0  0  0  0  0  0  0
   30.1738   29.1740   38.9789 C   0  0  0  0  0  0  0  0  0  0  0  0
   29.3847   29.9744   38.4059 O   0  0  0  0  0  0  0  0  0  0  0  0
   27.9073   23.7796   38.9821 C   0  0  0  0  0  0  0  0  0  0  0  0
   28.2143   23.3137   37.5533 C   0  0  0  0  0  0  0  0  0  0  0  0
   27.9902   22.6106   39.9667 C   0  0  0  0  0  0  0  0  0  0  0  0
  1  2  1  0
  2  3  2  0
  2  4  1  0
  4  5  2  0
  5  6  1  0
  6  7  2  0
  7  8  1  0
  8  9  2  0
  9 10  1  0
 10 11  2  0
 11 12  1  0
 12 13  2  0
 13 14  1  0
  8 15  1  0
 15 16  1  0
 16 17  1  0
 17 18  1  0
 18 19  2  0
 19 20  1  0
 20 21  2  0
 21 22  1  0
 22 23  1  0
 23 24  1  0
 24 25  1  0
 25 26  2  0
 20 27  1  0
 27 28  1  0
 27 29  1  0
 13  4  1  0
 25 15  1  0
 12  7  1  0
 22 18  1  0
M  END
>  <AAScore>  (1) 
347.5785398223355

>  <RootName>  (1) 
./4ZLY/04_DeltaGEst/trajectory_01/rank_01/lead_0313

$$$$
