confid_13
     RDKit          3D

 28 31  0  0  0  0  0  0  0  0999 V2000
   24.6900   26.1200   35.5300 N   0  0  0  0  0  0  0  0  0  0  0  0
   25.6600   25.6700   34.6600 C   0  0  0  0  0  0  0  0  0  0  0  0
   25.2400   25.0100   33.7200 O   0  0  0  0  0  0  0  0  0  0  0  0
   27.0300   26.2200   34.8800 C   0  0  0  0  0  0  0  0  0  0  0  0
   27.3500   26.7300   36.0700 N   0  0  0  0  0  0  0  0  0  0  0  0
   28.5700   27.1800   36.3300 N   0  0  0  0  0  0  0  0  0  0  0  0
   29.5300   27.1100   35.3900 C   0  0  0  0  0  0  0  0  0  0  0  0
   30.8300   27.5700   35.6500 C   0  0  0  0  0  0  0  0  0  0  0  0
   31.8500   27.5400   34.6900 C   0  0  0  0  0  0  0  0  0  0  0  0
   31.5100   27.1200   33.4000 C   0  0  0  0  0  0  0  0  0  0  0  0
   30.2200   26.6300   33.1100 C   0  0  0  0  0  0  0  0  0  0  0  0
   29.2400   26.6600   34.1000 C   0  0  0  0  0  0  0  0  0  0  0  0
   27.9300   26.2600   33.8100 C   0  0  0  0  0  0  0  0  0  0  0  0
   27.5200   25.7100   32.6100 N   0  0  0  0  0  0  0  0  0  0  0  0
   31.1524   28.0712   36.9579 N   0  0  0  0  0  0  0  0  0  0  0  0
   32.2408   27.5924   37.8030 C   0  0  0  0  0  0  0  0  0  0  0  0
   32.1484   28.4177   39.1105 C   0  0  0  0  0  0  0  0  0  0  0  0
   31.1137   29.4256   38.8794 N   0  0  0  0  0  0  0  0  0  0  0  0
   30.7912   30.5066   39.7766 C   0  0  0  0  0  0  0  0  0  0  0  0
   30.9296   30.3384   41.1646 C   0  0  0  0  0  0  0  0  0  0  0  0
   30.6272   31.3848   42.0403 C   0  0  0  0  0  0  0  0  0  0  0  0
   30.1920   32.6201   41.5501 C   0  0  0  0  0  0  0  0  0  0  0  0
   29.9004   33.6379   42.4703 O   0  0  0  0  0  0  0  0  0  0  0  0
   29.4498   34.9403   42.1123 C   0  0  0  0  0  0  0  0  0  0  0  0
   30.0659   32.7994   40.1603 C   0  0  0  0  0  0  0  0  0  0  0  0
   30.3668   31.7529   39.2833 C   0  0  0  0  0  0  0  0  0  0  0  0
   30.5382   29.1628   37.6121 C   0  0  0  0  0  0  0  0  0  0  0  0
   29.5741   29.8132   37.1262 O   0  0  0  0  0  0  0  0  0  0  0  0
  1  2  1  0
  2  3  2  0
  2  4  1  0
  4  5  2  0
  5  6  1  0
  6  7  2  0
  7  8  1  0
  8  9  2  0
  9 10  1  0
 10 11  2  0
 11 12  1  0
 12 13  2  0
 13 14  1  0
  8 15  1  0
 15 16  1  0
 16 17  1  0
 17 18  1  0
 18 19  1  0
 19 20  2  0
 20 21  1  0
 21 22  2  0
 22 23  1  0
 23 24  1  0
 22 25  1  0
 25 26  2  0
 18 27  1  0
 27 28  2  0
 13  4  1  0
 27 15  1  0
 12  7  1  0
 26 19  1  0
M  END
>  <AAScore>  (1) 
17.4751526911962

>  <RootName>  (1) 
./4ZLY/04_DeltaGEst/trajectory_02/rank_01/lead_0330

$$$$
