confid_16
     RDKit          3D

 27 30  0  0  0  0  0  0  0  0999 V2000
   24.6900   26.1200   35.5300 N   0  0  0  0  0  0  0  0  0  0  0  0
   25.6600   25.6700   34.6600 C   0  0  0  0  0  0  0  0  0  0  0  0
   25.2400   25.0100   33.7200 O   0  0  0  0  0  0  0  0  0  0  0  0
   27.0300   26.2200   34.8800 C   0  0  0  0  0  0  0  0  0  0  0  0
   27.3500   26.7300   36.0700 N   0  0  0  0  0  0  0  0  0  0  0  0
   28.5700   27.1800   36.3300 N   0  0  0  0  0  0  0  0  0  0  0  0
   29.5300   27.1100   35.3900 C   0  0  0  0  0  0  0  0  0  0  0  0
   30.8300   27.5700   35.6500 C   0  0  0  0  0  0  0  0  0  0  0  0
   31.8500   27.5400   34.6900 C   0  0  0  0  0  0  0  0  0  0  0  0
   31.5100   27.1200   33.4000 C   0  0  0  0  0  0  0  0  0  0  0  0
   30.2200   26.6300   33.1100 C   0  0  0  0  0  0  0  0  0  0  0  0
   29.2400   26.6600   34.1000 C   0  0  0  0  0  0  0  0  0  0  0  0
   27.9300   26.2600   33.8100 C   0  0  0  0  0  0  0  0  0  0  0  0
   27.5200   25.7100   32.6100 N   0  0  0  0  0  0  0  0  0  0  0  0
   31.1462   28.0615   36.9627 N   0  0  0  0  0  0  0  0  0  0  0  0
   30.5900   29.3356   37.4272 C   0  0  0  0  0  0  0  0  0  0  0  0
   30.0946   29.2253   38.8851 C   0  0  0  0  0  0  0  0  0  0  0  0
   30.6770   28.0706   39.6170 N   0  0  0  0  0  0  0  0  0  0  0  0
   30.5608   28.2472   41.0788 C   0  0  0  0  0  0  0  0  0  0  0  0
   29.1252   28.1888   41.5081 C   0  0  0  0  0  0  0  0  0  0  0  0
   28.3237   27.0649   41.5435 C   0  0  0  0  0  0  0  0  0  0  0  0
   27.1103   27.4099   41.9104 O   0  0  0  0  0  0  0  0  0  0  0  0
   27.0856   28.7087   42.1118 C   0  0  0  0  0  0  0  0  0  0  0  0
   25.8637   29.4686   42.5049 C   0  0  0  0  0  0  0  0  0  0  0  0
   28.3280   29.2570   41.8616 C   0  0  0  0  0  0  0  0  0  0  0  0
   32.0833   27.8510   39.2327 C   0  0  0  0  0  0  0  0  0  0  0  0
   32.1323   27.3540   37.7857 C   0  0  0  0  0  0  0  0  0  0  0  0
  1  2  1  0
  2  3  2  0
  2  4  1  0
  4  5  2  0
  5  6  1  0
  6  7  2  0
  7  8  1  0
  8  9  2  0
  9 10  1  0
 10 11  2  0
 11 12  1  0
 12 13  2  0
 13 14  1  0
  8 15  1  0
 15 16  1  0
 16 17  1  0
 17 18  1  0
 18 19  1  0
 19 20  1  0
 20 21  2  0
 21 22  1  0
 22 23  1  0
 23 24  1  0
 23 25  2  0
 18 26  1  0
 26 27  1  0
 13  4  1  0
 27 15  1  0
 12  7  1  0
 25 20  1  0
M  END
>  <AAScore>  (1) 
10.34113126963153

>  <RootName>  (1) 
./4ZLY/04_DeltaGEst/trajectory_02/rank_01/lead_0281

$$$$
