confid_0
     RDKit          3D

 28 32  0  0  0  0  0  0  0  0999 V2000
   24.6900   26.1200   35.5300 N   0  0  0  0  0  0  0  0  0  0  0  0
   25.6600   25.6700   34.6600 C   0  0  0  0  0  0  0  0  0  0  0  0
   25.2400   25.0100   33.7200 O   0  0  0  0  0  0  0  0  0  0  0  0
   27.0300   26.2200   34.8800 C   0  0  0  0  0  0  0  0  0  0  0  0
   27.3500   26.7300   36.0700 N   0  0  0  0  0  0  0  0  0  0  0  0
   28.5700   27.1800   36.3300 N   0  0  0  0  0  0  0  0  0  0  0  0
   29.5300   27.1100   35.3900 C   0  0  0  0  0  0  0  0  0  0  0  0
   30.8300   27.5700   35.6500 C   0  0  0  0  0  0  0  0  0  0  0  0
   31.8500   27.5400   34.6900 C   0  0  0  0  0  0  0  0  0  0  0  0
   31.5100   27.1200   33.4000 C   0  0  0  0  0  0  0  0  0  0  0  0
   30.2200   26.6300   33.1100 C   0  0  0  0  0  0  0  0  0  0  0  0
   29.2400   26.6600   34.1000 C   0  0  0  0  0  0  0  0  0  0  0  0
   27.9300   26.2600   33.8100 C   0  0  0  0  0  0  0  0  0  0  0  0
   27.5200   25.7100   32.6100 N   0  0  0  0  0  0  0  0  0  0  0  0
   23.4718   25.4111   35.8237 C   0  0  0  0  0  0  0  0  0  0  0  0
   23.3599   24.1479   35.5039 N   0  0  0  0  0  0  0  0  0  0  0  0
   22.2080   23.3405   35.7699 C   0  0  0  0  0  0  0  0  0  0  0  0
   21.0212   23.7082   35.3086 C   0  0  0  0  0  0  0  0  0  0  0  0
   19.5664   23.3925   35.4807 C   0  0  0  0  0  0  0  0  0  0  0  0
   19.1164   24.4434   34.6840 O   0  0  0  0  0  0  0  0  0  0  0  0
   20.4437   24.7631   34.4092 C   0  0  1  0  0  0  0  0  0  0  0  0
   20.8033   26.2184   34.7753 C   0  0  0  0  0  0  0  0  0  0  0  0
   21.2184   26.4174   36.2186 C   0  0  0  0  0  0  0  0  0  0  0  0
   22.4534   26.0892   36.6683 C   0  0  0  0  0  0  0  0  0  0  0  0
   22.8210   26.4243   38.0163 N   0  0  0  0  0  0  0  0  0  0  0  0
   22.1221   27.2151   38.7350 N   0  0  0  0  0  0  0  0  0  0  0  0
   20.9408   27.8957   38.2066 C   0  0  0  0  0  0  0  0  0  0  0  0
   20.2254   26.9943   37.1992 C   0  0  0  0  0  0  0  0  0  0  0  0
  1  2  1  0
  2  3  2  0
  2  4  1  0
  4  5  2  0
  5  6  1  0
  6  7  2  0
  7  8  1  0
  8  9  2  0
  9 10  1  0
 10 11  2  0
 11 12  1  0
 12 13  2  0
 13 14  1  0
  1 15  1  0
 15 16  2  0
 16 17  1  0
 17 18  2  0
 18 19  1  0
 19 20  1  0
 20 21  1  0
 21 22  1  1
 22 23  1  0
 23 24  2  0
 24 25  1  0
 25 26  2  0
 26 27  1  0
 27 28  1  0
 13  4  1  0
 24 15  1  0
 12  7  1  0
 21 18  1  0
 28 23  1  0
M  END
>  <AAScore>  (1) 
1531819.1509023118

>  <RootName>  (1) 
./4ZLY/04_DeltaGEst/trajectory_02/rank_00/lead_0450

$$$$
