confid_10
     RDKit          3D

 27 31  0  0  0  0  0  0  0  0999 V2000
   24.5700   26.8800   35.5900 N   0  0  0  0  0  0  0  0  0  0  0  0
   25.5000   26.4000   34.6900 C   0  0  0  0  0  0  0  0  0  0  0  0
   25.1700   25.5200   33.9100 O   0  0  0  0  0  0  0  0  0  0  0  0
   26.8400   27.0200   34.7400 C   0  0  0  0  0  0  0  0  0  0  0  0
   27.3800   27.2800   35.9400 N   0  0  0  0  0  0  0  0  0  0  0  0
   28.6200   27.7400   36.0300 N   0  0  0  0  0  0  0  0  0  0  0  0
   29.3800   28.0000   34.9600 C   0  0  0  0  0  0  0  0  0  0  0  0
   30.6700   28.5000   35.1300 C   0  0  0  0  0  0  0  0  0  0  0  0
   31.5400   28.6100   34.0300 C   0  0  0  0  0  0  0  0  0  0  0  0
   31.0900   28.2200   32.7700 C   0  0  0  0  0  0  0  0  0  0  0  0
   29.8000   27.7000   32.6000 C   0  0  0  0  0  0  0  0  0  0  0  0
   28.9600   27.5500   33.7100 C   0  0  0  0  0  0  0  0  0  0  0  0
   27.6600   27.0300   33.5900 C   0  0  0  0  0  0  0  0  0  0  0  0
   27.1600   26.7400   32.3400 N   0  0  0  0  0  0  0  0  0  0  0  0
   23.3113   26.2523   35.8916 C   0  0  0  0  0  0  0  0  0  0  0  0
   23.0143   24.9889   35.3932 N   0  0  0  0  0  0  0  0  0  0  0  0
   21.8392   24.3269   35.6529 C   0  0  0  0  0  0  0  0  0  0  0  0
   20.9444   24.9900   36.4580 C   0  0  0  0  0  0  0  0  0  0  0  0
   19.6167   25.0314   37.1554 C   0  0  1  0  0  0  0  0  0  0  0  0
   19.4670   23.9318   38.2531 C   0  0  0  0  0  0  0  0  0  0  0  0
   18.5679   22.7944   37.9327 N   0  0  0  0  0  0  0  0  0  0  0  0
   18.6760   22.2559   36.5705 C   0  0  0  0  0  0  0  0  0  0  0  0
   17.2551   22.6596   36.2170 C   0  0  0  0  0  0  0  0  0  0  0  0
   17.1880   23.1998   37.6349 C   0  0  0  0  0  0  0  0  0  0  0  0
   19.9742   26.3494   37.6784 C   0  0  0  0  0  0  0  0  0  0  0  0
   21.2711   26.2653   36.9540 C   0  0  0  0  0  0  0  0  0  0  0  0
   22.4190   26.9170   36.7034 N   0  0  0  0  0  0  0  0  0  0  0  0
  1  2  1  0
  2  3  2  0
  2  4  1  0
  4  5  2  0
  5  6  1  0
  6  7  2  0
  7  8  1  0
  8  9  2  0
  9 10  1  0
 10 11  2  0
 11 12  1  0
 12 13  2  0
 13 14  1  0
  1 15  1  0
 15 16  2  0
 16 17  1  0
 17 18  2  0
 18 19  1  0
 19 20  1  1
 20 21  1  0
 21 22  1  0
 22 23  1  0
 23 24  1  0
 19 25  1  0
 25 26  1  0
 26 27  2  0
 13  4  1  0
 27 15  1  0
 12  7  1  0
 26 18  1  0
 24 21  1  0
M  END
>  <AAScore>  (1) 
27993.387157874517

>  <RootName>  (1) 
./4ZLY/04_DeltaGEst/trajectory_05/rank_00/lead_0391

$$$$
