confid_5
     RDKit          3D

 29 33  0  0  0  0  0  0  0  0999 V2000
   24.4800   26.1000   36.1300 N   0  0  0  0  0  0  0  0  0  0  0  0
   25.2500   26.2500   34.9900 C   0  0  0  0  0  0  0  0  0  0  0  0
   24.7400   25.7600   33.9900 O   0  0  0  0  0  0  0  0  0  0  0  0
   26.5900   26.8900   34.9600 C   0  0  0  0  0  0  0  0  0  0  0  0
   27.0600   27.2400   36.1600 N   0  0  0  0  0  0  0  0  0  0  0  0
   28.3000   27.7100   36.2400 N   0  0  0  0  0  0  0  0  0  0  0  0
   29.0500   27.9600   35.1500 C   0  0  0  0  0  0  0  0  0  0  0  0
   30.3400   28.4900   35.2600 C   0  0  0  0  0  0  0  0  0  0  0  0
   31.1100   28.8200   34.1400 C   0  0  0  0  0  0  0  0  0  0  0  0
   30.5200   28.6700   32.8800 C   0  0  0  0  0  0  0  0  0  0  0  0
   29.2900   28.0200   32.7700 C   0  0  0  0  0  0  0  0  0  0  0  0
   28.5200   27.7100   33.8900 C   0  0  0  0  0  0  0  0  0  0  0  0
   27.2700   27.0800   33.7600 C   0  0  0  0  0  0  0  0  0  0  0  0
   26.7500   26.8800   32.4900 N   0  0  0  0  0  0  0  0  0  0  0  0
   23.0744   25.7910   36.1309 C   0  0  0  0  0  0  0  0  0  0  0  0
   22.3252   26.3548   35.2191 N   0  0  0  0  0  0  0  0  0  0  0  0
   20.9287   26.3509   34.8773 C   0  0  0  0  0  0  0  0  0  0  0  0
   19.9479   26.1665   35.7559 C   0  0  0  0  0  0  0  0  0  0  0  0
   18.5669   26.7245   35.9612 C   0  0  0  0  0  0  0  0  0  0  0  0
   18.4450   26.2790   37.2756 O   0  0  0  0  0  0  0  0  0  0  0  0
   19.6557   25.6173   37.1148 C   0  0  2  0  0  0  0  0  0  0  0  0
   20.7214   26.0100   38.1341 C   0  0  0  0  0  0  0  0  0  0  0  0
   21.7265   24.8970   38.1256 C   0  0  0  0  0  0  0  0  0  0  0  0
   21.5773   23.8617   39.0672 C   0  0  0  0  0  0  0  0  0  0  0  0
   22.3390   22.7014   38.9714 C   0  0  0  0  0  0  0  0  0  0  0  0
   23.2407   22.5685   37.9216 C   0  0  0  0  0  0  0  0  0  0  0  0
   23.3806   23.5707   37.0166 N   0  0  0  0  0  0  0  0  0  0  0  0
   22.6504   24.7192   37.0640 C   0  0  0  0  0  0  0  0  0  0  0  0
   22.1941   21.7086   39.8828 F   0  0  0  0  0  0  0  0  0  0  0  0
  1  2  1  0
  2  3  2  0
  2  4  1  0
  4  5  2  0
  5  6  1  0
  6  7  2  0
  7  8  1  0
  8  9  2  0
  9 10  1  0
 10 11  2  0
 11 12  1  0
 12 13  2  0
 13 14  1  0
  1 15  1  0
 15 16  2  0
 16 17  1  0
 17 18  2  0
 18 19  1  0
 19 20  1  0
 20 21  1  0
 21 22  1  1
 22 23  1  0
 23 24  2  0
 24 25  1  0
 25 26  2  0
 26 27  1  0
 27 28  2  0
 25 29  1  0
 13  4  1  0
 28 15  1  0
 12  7  1  0
 21 18  1  0
 28 23  1  0
M  END
>  <AAScore>  (1) 
2675.806646716502

>  <RootName>  (1) 
./4ZLY/04_DeltaGEst/trajectory_00/rank_01/lead_0398

$$$$
