confid_17
     RDKit          3D

 28 31  0  0  0  0  0  0  0  0999 V2000
   24.2000   26.2400   35.6900 N   0  0  0  0  0  0  0  0  0  0  0  0
   24.8500   26.2800   34.4800 C   0  0  0  0  0  0  0  0  0  0  0  0
   24.3100   25.7400   33.5400 O   0  0  0  0  0  0  0  0  0  0  0  0
   26.1800   26.9700   34.4700 C   0  0  0  0  0  0  0  0  0  0  0  0
   26.6500   27.6000   35.5500 N   0  0  0  0  0  0  0  0  0  0  0  0
   27.7900   28.2700   35.6200 N   0  0  0  0  0  0  0  0  0  0  0  0
   28.5400   28.3000   34.5100 C   0  0  0  0  0  0  0  0  0  0  0  0
   29.7700   28.9400   34.5600 C   0  0  0  0  0  0  0  0  0  0  0  0
   30.7000   28.8900   33.5000 C   0  0  0  0  0  0  0  0  0  0  0  0
   30.3700   28.1400   32.3700 C   0  0  0  0  0  0  0  0  0  0  0  0
   29.1200   27.5200   32.2800 C   0  0  0  0  0  0  0  0  0  0  0  0
   28.2100   27.6100   33.3300 C   0  0  0  0  0  0  0  0  0  0  0  0
   26.9700   26.9700   33.3100 C   0  0  0  0  0  0  0  0  0  0  0  0
   26.5300   26.2400   32.2200 N   0  0  0  0  0  0  0  0  0  0  0  0
   30.1274   29.6965   35.7278 N   0  0  0  0  0  0  0  0  0  0  0  0
   31.1053   29.1844   36.6816 C   0  0  0  0  0  0  0  0  0  0  0  0
   30.4090   28.7761   37.9782 C   0  0  0  0  0  0  0  0  0  0  0  0
   29.7341   29.8702   38.8129 C   0  0  0  0  0  0  0  0  0  0  0  0
   29.2340   29.4973   40.0956 C   0  0  0  0  0  0  0  0  0  0  0  0
   28.6634   30.4276   40.9071 N   0  0  0  0  0  0  0  0  0  0  0  0
   28.5289   31.7234   40.5444 C   0  0  0  0  0  0  0  0  0  0  0  0
   28.9694   32.1446   39.2975 C   0  0  0  0  0  0  0  0  0  0  0  0
   29.5742   31.2376   38.4073 C   0  0  0  0  0  0  0  0  0  0  0  0
   29.9789   31.7343   37.1103 N   0  0  0  0  0  0  0  0  0  0  0  0
   30.5240   33.0873   36.9550 C   0  0  0  0  0  0  0  0  0  0  0  0
   29.6214   31.0174   35.9266 C   0  0  0  0  0  0  0  0  0  0  0  0
   28.9224   31.5776   35.0373 O   0  0  0  0  0  0  0  0  0  0  0  0
   29.3094   28.0840   40.6104 C   0  0  0  0  0  0  0  0  0  0  0  0
  1  2  1  0
  2  3  2  0
  2  4  1  0
  4  5  2  0
  5  6  1  0
  6  7  2  0
  7  8  1  0
  8  9  2  0
  9 10  1  0
 10 11  2  0
 11 12  1  0
 12 13  2  0
 13 14  1  0
  8 15  1  0
 15 16  1  0
 16 17  1  0
 17 18  1  0
 18 19  2  0
 19 20  1  0
 20 21  2  0
 21 22  1  0
 22 23  2  0
 23 24  1  0
 24 25  1  0
 24 26  1  0
 26 27  2  0
 19 28  1  0
 13  4  1  0
 26 15  1  0
 12  7  1  0
 23 18  1  0
M  END
>  <AAScore>  (1) 
-7.492500414685375

>  <RootName>  (1) 
./4ZLY/04_DeltaGEst/trajectory_04/rank_01/lead_0079

$$$$
