confid_17
     RDKit          3D

 26 28  0  0  0  0  0  0  0  0999 V2000
   24.6900   26.1200   35.5300 N   0  0  0  0  0  0  0  0  0  0  0  0
   25.6600   25.6700   34.6600 C   0  0  0  0  0  0  0  0  0  0  0  0
   25.2400   25.0100   33.7200 O   0  0  0  0  0  0  0  0  0  0  0  0
   27.0300   26.2200   34.8800 C   0  0  0  0  0  0  0  0  0  0  0  0
   27.3500   26.7300   36.0700 N   0  0  0  0  0  0  0  0  0  0  0  0
   28.5700   27.1800   36.3300 N   0  0  0  0  0  0  0  0  0  0  0  0
   29.5300   27.1100   35.3900 C   0  0  0  0  0  0  0  0  0  0  0  0
   30.8300   27.5700   35.6500 C   0  0  0  0  0  0  0  0  0  0  0  0
   31.8500   27.5400   34.6900 C   0  0  0  0  0  0  0  0  0  0  0  0
   31.5100   27.1200   33.4000 C   0  0  0  0  0  0  0  0  0  0  0  0
   30.2200   26.6300   33.1100 C   0  0  0  0  0  0  0  0  0  0  0  0
   29.2400   26.6600   34.1000 C   0  0  0  0  0  0  0  0  0  0  0  0
   27.9300   26.2600   33.8100 C   0  0  0  0  0  0  0  0  0  0  0  0
   27.5200   25.7100   32.6100 N   0  0  0  0  0  0  0  0  0  0  0  0
   31.1615   28.0360   36.9720 N   0  0  0  0  0  0  0  0  0  0  0  0
   31.4956   29.4548   37.1674 C   0  0  0  0  0  0  0  0  0  0  0  0
   30.2404   30.3450   37.1395 C   0  0  0  0  0  0  0  0  0  0  0  0
   29.8181   30.7145   38.5119 N   0  0  0  0  0  0  0  0  0  0  0  0
   28.9055   29.7191   39.1345 C   0  0  0  0  0  0  0  0  0  0  0  0
   29.5925   29.0073   40.3355 C   0  0  0  0  0  0  0  0  0  0  0  0
   30.0528   30.0707   41.3518 C   0  0  0  0  0  0  0  0  0  0  0  0
   28.5861   28.0837   41.0738 C   0  0  0  0  0  0  0  0  0  0  0  0
   30.7678   28.3172   39.9185 O   0  0  0  0  0  0  0  0  0  0  0  0
   30.5262   27.1309   39.1803 C   0  0  0  0  0  0  0  0  0  0  0  0
   31.4961   27.0476   38.0066 C   0  0  0  0  0  0  0  0  0  0  0  0
   29.2161   32.0597   38.5240 C   0  0  0  0  0  0  0  0  0  0  0  0
  1  2  1  0
  2  3  2  0
  2  4  1  0
  4  5  2  0
  5  6  1  0
  6  7  2  0
  7  8  1  0
  8  9  2  0
  9 10  1  0
 10 11  2  0
 11 12  1  0
 12 13  2  0
 13 14  1  0
  8 15  1  0
 15 16  1  0
 16 17  1  0
 17 18  1  0
 18 19  1  0
 19 20  1  0
 20 21  1  0
 20 22  1  0
 20 23  1  0
 23 24  1  0
 24 25  1  0
 18 26  1  0
 13  4  1  0
 25 15  1  0
 12  7  1  0
M  END
>  <AAScore>  (1) 
-6.458601751235699

>  <RootName>  (1) 
./4ZLY/04_DeltaGEst/trajectory_02/rank_01/lead_0226

$$$$
