confid_16
     RDKit          3D

 28 31  0  0  0  0  0  0  0  0999 V2000
   24.4800   26.1000   36.1300 N   0  0  0  0  0  0  0  0  0  0  0  0
   25.2500   26.2500   34.9900 C   0  0  0  0  0  0  0  0  0  0  0  0
   24.7400   25.7600   33.9900 O   0  0  0  0  0  0  0  0  0  0  0  0
   26.5900   26.8900   34.9600 C   0  0  0  0  0  0  0  0  0  0  0  0
   27.0600   27.2400   36.1600 N   0  0  0  0  0  0  0  0  0  0  0  0
   28.3000   27.7100   36.2400 N   0  0  0  0  0  0  0  0  0  0  0  0
   29.0500   27.9600   35.1500 C   0  0  0  0  0  0  0  0  0  0  0  0
   30.3400   28.4900   35.2600 C   0  0  0  0  0  0  0  0  0  0  0  0
   31.1100   28.8200   34.1400 C   0  0  0  0  0  0  0  0  0  0  0  0
   30.5200   28.6700   32.8800 C   0  0  0  0  0  0  0  0  0  0  0  0
   29.2900   28.0200   32.7700 C   0  0  0  0  0  0  0  0  0  0  0  0
   28.5200   27.7100   33.8900 C   0  0  0  0  0  0  0  0  0  0  0  0
   27.2700   27.0800   33.7600 C   0  0  0  0  0  0  0  0  0  0  0  0
   26.7500   26.8800   32.4900 N   0  0  0  0  0  0  0  0  0  0  0  0
   23.0573   25.8985   36.1517 C   0  0  0  0  0  0  0  0  0  0  0  0
   22.5997   25.0090   37.0197 N   0  0  0  0  0  0  0  0  0  0  0  0
   21.2592   24.5773   37.3838 C   0  0  0  0  0  0  0  0  0  0  0  0
   20.1705   25.2352   36.9644 C   0  0  0  0  0  0  0  0  0  0  0  0
   19.5380   24.6551   35.7472 C   0  0  0  0  0  0  0  0  0  0  0  0
   20.1348   25.5021   34.7340 N   0  0  0  0  0  0  0  0  0  0  0  0
   19.7007   25.5542   33.3710 C   0  0  0  0  0  0  0  0  0  0  0  0
   19.3892   26.6591   32.8589 O   0  0  0  0  0  0  0  0  0  0  0  0
   19.5576   24.2848   32.5726 C   0  0  0  0  0  0  0  0  0  0  0  0
   19.8548   24.5145   31.0816 C   0  0  0  0  0  0  0  0  0  0  0  0
   18.1507   23.6963   32.7261 C   0  0  0  0  0  0  0  0  0  0  0  0
   20.7238   26.5978   35.4385 C   0  0  0  0  0  0  0  0  0  0  0  0
   20.4024   26.5999   36.6786 N   0  0  0  0  0  0  0  0  0  0  0  0
   22.1901   26.8159   35.2515 C   0  0  0  0  0  0  0  0  0  0  0  0
  1  2  1  0
  2  3  2  0
  2  4  1  0
  4  5  2  0
  5  6  1  0
  6  7  2  0
  7  8  1  0
  8  9  2  0
  9 10  1  0
 10 11  2  0
 11 12  1  0
 12 13  2  0
 13 14  1  0
  1 15  1  0
 15 16  2  0
 16 17  1  0
 17 18  2  0
 18 19  1  0
 19 20  1  0
 20 21  1  0
 21 22  2  0
 21 23  1  0
 23 24  1  0
 23 25  1  0
 20 26  1  0
 26 27  2  0
 26 28  1  0
 13  4  1  0
 28 15  1  0
 12  7  1  0
 27 18  1  0
M  END
>  <AAScore>  (1) 
1068.5073815069447

>  <RootName>  (1) 
./4ZLY/04_DeltaGEst/trajectory_00/rank_01/lead_0478

$$$$
