confid_10
     RDKit          3D

 28 31  0  0  0  0  0  0  0  0999 V2000
   24.2000   26.2400   35.6900 N   0  0  0  0  0  0  0  0  0  0  0  0
   24.8500   26.2800   34.4800 C   0  0  0  0  0  0  0  0  0  0  0  0
   24.3100   25.7400   33.5400 O   0  0  0  0  0  0  0  0  0  0  0  0
   26.1800   26.9700   34.4700 C   0  0  0  0  0  0  0  0  0  0  0  0
   26.6500   27.6000   35.5500 N   0  0  0  0  0  0  0  0  0  0  0  0
   27.7900   28.2700   35.6200 N   0  0  0  0  0  0  0  0  0  0  0  0
   28.5400   28.3000   34.5100 C   0  0  0  0  0  0  0  0  0  0  0  0
   29.7700   28.9400   34.5600 C   0  0  0  0  0  0  0  0  0  0  0  0
   30.7000   28.8900   33.5000 C   0  0  0  0  0  0  0  0  0  0  0  0
   30.3700   28.1400   32.3700 C   0  0  0  0  0  0  0  0  0  0  0  0
   29.1200   27.5200   32.2800 C   0  0  0  0  0  0  0  0  0  0  0  0
   28.2100   27.6100   33.3300 C   0  0  0  0  0  0  0  0  0  0  0  0
   26.9700   26.9700   33.3100 C   0  0  0  0  0  0  0  0  0  0  0  0
   26.5300   26.2400   32.2200 N   0  0  0  0  0  0  0  0  0  0  0  0
   30.1409   29.6739   35.7372 N   0  0  0  0  0  0  0  0  0  0  0  0
   29.5362   30.9902   35.9843 C   0  0  0  0  0  0  0  0  0  0  0  0
   30.0412   31.5989   37.2960 C   0  0  0  0  0  0  0  0  0  0  0  0
   31.4997   31.4606   37.3851 N   0  0  0  0  0  0  0  0  0  0  0  0
   32.3022   32.5668   37.8269 C   0  0  0  0  0  0  0  0  0  0  0  0
   33.1766   33.1902   36.9273 C   0  0  0  0  0  0  0  0  0  0  0  0
   33.9511   34.2752   37.3403 C   0  0  0  0  0  0  0  0  0  0  0  0
   35.0397   35.0666   36.2156 Cl  0  0  0  0  0  0  0  0  0  0  0  0
   33.8447   34.7278   38.6563 C   0  0  0  0  0  0  0  0  0  0  0  0
   33.0005   34.1086   39.5226 N   0  0  0  0  0  0  0  0  0  0  0  0
   32.2373   33.0425   39.1541 C   0  0  0  0  0  0  0  0  0  0  0  0
   31.3364   32.4124   40.1728 C   0  0  0  0  0  0  0  0  0  0  0  0
   32.1590   30.1950   37.0348 C   0  0  0  0  0  0  0  0  0  0  0  0
   31.1373   29.1179   36.6591 C   0  0  0  0  0  0  0  0  0  0  0  0
  1  2  1  0
  2  3  2  0
  2  4  1  0
  4  5  2  0
  5  6  1  0
  6  7  2  0
  7  8  1  0
  8  9  2  0
  9 10  1  0
 10 11  2  0
 11 12  1  0
 12 13  2  0
 13 14  1  0
  8 15  1  0
 15 16  1  0
 16 17  1  0
 17 18  1  0
 18 19  1  0
 19 20  2  0
 20 21  1  0
 21 22  1  0
 21 23  2  0
 23 24  1  0
 24 25  2  0
 25 26  1  0
 18 27  1  0
 27 28  1  0
 13  4  1  0
 28 15  1  0
 12  7  1  0
 25 19  1  0
M  END
>  <AAScore>  (1) 
-7.948816815096976

>  <RootName>  (1) 
./4ZLY/04_DeltaGEst/trajectory_04/rank_01/lead_0096

$$$$
