confid_14
     RDKit          3D

 26 28  0  0  0  0  0  0  0  0999 V2000
   24.5700   26.8800   35.5900 N   0  0  0  0  0  0  0  0  0  0  0  0
   25.5000   26.4000   34.6900 C   0  0  0  0  0  0  0  0  0  0  0  0
   25.1700   25.5200   33.9100 O   0  0  0  0  0  0  0  0  0  0  0  0
   26.8400   27.0200   34.7400 C   0  0  0  0  0  0  0  0  0  0  0  0
   27.3800   27.2800   35.9400 N   0  0  0  0  0  0  0  0  0  0  0  0
   28.6200   27.7400   36.0300 N   0  0  0  0  0  0  0  0  0  0  0  0
   29.3800   28.0000   34.9600 C   0  0  0  0  0  0  0  0  0  0  0  0
   30.6700   28.5000   35.1300 C   0  0  0  0  0  0  0  0  0  0  0  0
   31.5400   28.6100   34.0300 C   0  0  0  0  0  0  0  0  0  0  0  0
   31.0900   28.2200   32.7700 C   0  0  0  0  0  0  0  0  0  0  0  0
   29.8000   27.7000   32.6000 C   0  0  0  0  0  0  0  0  0  0  0  0
   28.9600   27.5500   33.7100 C   0  0  0  0  0  0  0  0  0  0  0  0
   27.6600   27.0300   33.5900 C   0  0  0  0  0  0  0  0  0  0  0  0
   27.1600   26.7400   32.3400 N   0  0  0  0  0  0  0  0  0  0  0  0
   33.1607   29.2637   34.2337 S   0  0  0  0  0  6  0  0  0  0  0  0
   34.0967   28.5979   33.2642 O   0  0  0  0  0  0  0  0  0  0  0  0
   33.6439   28.9944   35.6315 O   0  0  0  0  0  0  0  0  0  0  0  0
   33.1163   31.0234   33.9395 C   0  0  0  0  0  0  0  0  0  0  0  0
   34.5010   31.6115   34.0365 C   0  0  0  0  0  0  0  0  0  0  0  0
   35.3499   31.7059   32.9115 C   0  0  0  0  0  0  0  0  0  0  0  0
   36.6355   32.2402   33.0520 C   0  0  0  0  0  0  0  0  0  0  0  0
   37.0921   32.6679   34.2998 C   0  0  0  0  0  0  0  0  0  0  0  0
   36.2718   32.5511   35.4294 C   0  0  0  0  0  0  0  0  0  0  0  0
   36.7496   33.0359   36.7661 C   0  0  0  0  0  0  0  0  0  0  0  0
   34.9757   32.0342   35.2903 C   0  0  0  0  0  0  0  0  0  0  0  0
   34.8426   31.1730   31.3114 Cl  0  0  0  0  0  0  0  0  0  0  0  0
  1  2  1  0
  2  3  2  0
  2  4  1  0
  4  5  2  0
  5  6  1  0
  6  7  2  0
  7  8  1  0
  8  9  2  0
  9 10  1  0
 10 11  2  0
 11 12  1  0
 12 13  2  0
 13 14  1  0
  9 15  1  0
 15 16  2  0
 15 17  2  0
 15 18  1  0
 18 19  1  0
 19 20  2  0
 20 21  1  0
 21 22  2  0
 22 23  1  0
 23 24  1  0
 23 25  2  0
 20 26  1  0
 13  4  1  0
 25 19  1  0
 12  7  1  0
M  END
>  <AAScore>  (1) 
-5.789459488071915

>  <RootName>  (1) 
./4ZLY/04_DeltaGEst/trajectory_05/rank_01/lead_0082

$$$$
