confid_18
     RDKit          3D

 27 30  0  0  0  0  0  0  0  0999 V2000
   24.5500   26.3900   36.2500 N   0  0  0  0  0  0  0  0  0  0  0  0
   25.6000   26.1300   35.4000 C   0  0  0  0  0  0  0  0  0  0  0  0
   25.4300   25.4300   34.4200 O   0  0  0  0  0  0  0  0  0  0  0  0
   26.9800   26.6300   35.7100 C   0  0  0  0  0  0  0  0  0  0  0  0
   27.3200   26.8200   36.9800 N   0  0  0  0  0  0  0  0  0  0  0  0
   28.4700   27.4000   37.3100 N   0  0  0  0  0  0  0  0  0  0  0  0
   29.4000   27.6300   36.3700 C   0  0  0  0  0  0  0  0  0  0  0  0
   30.6600   28.0500   36.8000 C   0  0  0  0  0  0  0  0  0  0  0  0
   31.5700   28.3600   35.7800 C   0  0  0  0  0  0  0  0  0  0  0  0
   31.3700   28.1000   34.4300 C   0  0  0  0  0  0  0  0  0  0  0  0
   30.1200   27.5900   34.0500 C   0  0  0  0  0  0  0  0  0  0  0  0
   29.1500   27.3400   35.0300 C   0  0  0  0  0  0  0  0  0  0  0  0
   27.8800   26.8900   34.6600 C   0  0  0  0  0  0  0  0  0  0  0  0
   27.4800   26.6100   33.3700 N   0  0  0  0  0  0  0  0  0  0  0  0
   30.9702   28.2988   38.1805 N   0  0  0  0  0  0  0  0  0  0  0  0
   32.0439   27.5297   38.8211 C   0  0  0  0  0  0  0  0  0  0  0  0
   32.2296   27.9459   40.2840 C   0  0  0  0  0  0  0  0  0  0  0  0
   30.9182   28.0658   40.9470 N   0  0  0  0  0  0  0  0  0  0  0  0
   30.6733   27.4164   42.2210 C   0  0  0  0  0  0  0  0  0  0  0  0
   29.5050   27.6708   42.9690 C   0  0  0  0  0  0  0  0  0  0  0  0
   29.3035   27.0110   44.1828 C   0  0  0  0  0  0  0  0  0  0  0  0
   30.2543   26.1042   44.6510 C   0  0  0  0  0  0  0  0  0  0  0  0
   31.4071   25.8703   43.8952 C   0  0  0  0  0  0  0  0  0  0  0  0
   32.4263   24.8745   44.3516 C   0  0  0  0  0  0  0  0  0  0  0  0
   31.5788   26.5198   42.7114 N   0  0  0  0  0  0  0  0  0  0  0  0
   29.8634   28.8679   40.2958 C   0  0  0  0  0  0  0  0  0  0  0  0
   30.2935   29.3738   38.9132 C   0  0  0  0  0  0  0  0  0  0  0  0
  1  2  1  0
  2  3  2  0
  2  4  1  0
  4  5  2  0
  5  6  1  0
  6  7  2  0
  7  8  1  0
  8  9  2  0
  9 10  1  0
 10 11  2  0
 11 12  1  0
 12 13  2  0
 13 14  1  0
  8 15  1  0
 15 16  1  0
 16 17  1  0
 17 18  1  0
 18 19  1  0
 19 20  2  0
 20 21  1  0
 21 22  2  0
 22 23  1  0
 23 24  1  0
 23 25  2  0
 18 26  1  0
 26 27  1  0
 13  4  1  0
 27 15  1  0
 12  7  1  0
 25 19  1  0
M  END
>  <AAScore>  (1) 
560.734108754608

>  <RootName>  (1) 
./4ZLY/04_DeltaGEst/trajectory_01/rank_01/lead_0086

$$$$
