confid_5
     RDKit          3D

 29 32  0  0  0  0  0  0  0  0999 V2000
   24.4800   26.1000   36.1300 N   0  0  0  0  0  0  0  0  0  0  0  0
   25.2500   26.2500   34.9900 C   0  0  0  0  0  0  0  0  0  0  0  0
   24.7400   25.7600   33.9900 O   0  0  0  0  0  0  0  0  0  0  0  0
   26.5900   26.8900   34.9600 C   0  0  0  0  0  0  0  0  0  0  0  0
   27.0600   27.2400   36.1600 N   0  0  0  0  0  0  0  0  0  0  0  0
   28.3000   27.7100   36.2400 N   0  0  0  0  0  0  0  0  0  0  0  0
   29.0500   27.9600   35.1500 C   0  0  0  0  0  0  0  0  0  0  0  0
   30.3400   28.4900   35.2600 C   0  0  0  0  0  0  0  0  0  0  0  0
   31.1100   28.8200   34.1400 C   0  0  0  0  0  0  0  0  0  0  0  0
   30.5200   28.6700   32.8800 C   0  0  0  0  0  0  0  0  0  0  0  0
   29.2900   28.0200   32.7700 C   0  0  0  0  0  0  0  0  0  0  0  0
   28.5200   27.7100   33.8900 C   0  0  0  0  0  0  0  0  0  0  0  0
   27.2700   27.0800   33.7600 C   0  0  0  0  0  0  0  0  0  0  0  0
   26.7500   26.8800   32.4900 N   0  0  0  0  0  0  0  0  0  0  0  0
   23.4365   25.1212   36.3021 C   0  0  0  0  0  0  0  0  0  0  0  0
   23.5459   23.8333   35.7455 C   0  0  0  0  0  0  0  0  0  0  0  0
   22.5076   22.9014   35.8921 C   0  0  0  0  0  0  0  0  0  0  0  0
   22.6101   21.5512   35.2297 C   0  0  0  0  0  0  0  0  0  0  0  0
   22.7355   21.7000   33.7652 N   0  0  0  0  0  0  0  0  0  0  0  0
   23.1726   20.4291   33.1585 C   0  0  0  0  0  0  0  0  0  0  0  0
   23.3367   20.5972   31.6441 C   0  0  0  0  0  0  0  0  0  0  0  0
   22.0657   21.0367   31.0422 N   0  0  0  0  0  0  0  0  0  0  0  0
   22.2270   21.2055   29.5908 C   0  0  0  0  0  0  0  0  0  0  0  0
   21.6227   22.3049   31.6524 C   0  0  0  0  0  0  0  0  0  0  0  0
   21.4571   22.1295   33.1644 C   0  0  0  0  0  0  0  0  0  0  0  0
   21.3704   23.2474   36.6365 C   0  0  0  0  0  0  0  0  0  0  0  0
   21.2756   24.5084   37.2286 C   0  0  0  0  0  0  0  0  0  0  0  0
   22.3022   25.4418   37.0653 C   0  0  0  0  0  0  0  0  0  0  0  0
   22.1777   26.6696   37.6279 F   0  0  0  0  0  0  0  0  0  0  0  0
  1  2  1  0
  2  3  2  0
  2  4  1  0
  4  5  2  0
  5  6  1  0
  6  7  2  0
  7  8  1  0
  8  9  2  0
  9 10  1  0
 10 11  2  0
 11 12  1  0
 12 13  2  0
 13 14  1  0
  1 15  1  0
 15 16  2  0
 16 17  1  0
 17 18  1  0
 18 19  1  0
 19 20  1  0
 20 21  1  0
 21 22  1  0
 22 23  1  0
 22 24  1  0
 24 25  1  0
 17 26  2  0
 26 27  1  0
 27 28  2  0
 28 29  1  0
 13  4  1  0
 28 15  1  0
 12  7  1  0
 25 19  1  0
M  END
>  <AAScore>  (1) 
610.2101602908341

>  <RootName>  (1) 
./4ZLY/04_DeltaGEst/trajectory_00/rank_00/lead_0068

$$$$
