confid_3
     RDKit          3D

 27 30  0  0  0  0  0  0  0  0999 V2000
   25.3300   26.2600   34.7600 N   0  0  0  0  0  0  0  0  0  0  0  0
   26.1200   25.9200   33.6900 C   0  0  0  0  0  0  0  0  0  0  0  0
   25.6300   25.1100   32.9400 O   0  0  0  0  0  0  0  0  0  0  0  0
   27.5200   26.3800   33.4600 C   0  0  0  0  0  0  0  0  0  0  0  0
   28.1600   26.6300   34.6100 N   0  0  0  0  0  0  0  0  0  0  0  0
   29.4800   26.8500   34.5700 N   0  0  0  0  0  0  0  0  0  0  0  0
   30.1900   26.7800   33.4400 C   0  0  0  0  0  0  0  0  0  0  0  0
   31.5600   27.0500   33.5000 C   0  0  0  0  0  0  0  0  0  0  0  0
   32.2700   27.2400   32.3100 C   0  0  0  0  0  0  0  0  0  0  0  0
   31.6100   27.2500   31.0800 C   0  0  0  0  0  0  0  0  0  0  0  0
   30.2700   26.8700   31.0600 C   0  0  0  0  0  0  0  0  0  0  0  0
   29.5100   26.6900   32.2300 C   0  0  0  0  0  0  0  0  0  0  0  0
   28.1400   26.4100   32.2000 C   0  0  0  0  0  0  0  0  0  0  0  0
   27.4300   26.1300   31.0500 N   0  0  0  0  0  0  0  0  0  0  0  0
   24.1910   25.5056   35.2291 C   0  0  0  0  0  0  0  0  0  0  0  0
   24.0924   24.1715   34.9325 N   0  0  0  0  0  0  0  0  0  0  0  0
   23.0685   23.3934   35.3776 C   0  0  0  0  0  0  0  0  0  0  0  0
   22.0884   23.9701   36.1745 C   0  0  0  0  0  0  0  0  0  0  0  0
   20.9062   23.3139   36.7805 C   0  0  0  0  0  0  0  0  0  0  0  0
   20.2646   24.4083   37.5091 N   0  0  0  0  0  0  0  0  0  0  0  0
   19.0598   24.2739   38.2793 C   0  0  0  0  0  0  0  0  0  0  0  0
   18.5763   25.2787   38.8674 O   0  0  0  0  0  0  0  0  0  0  0  0
   18.3659   22.9529   38.3977 C   0  0  0  0  0  0  0  0  0  0  0  0
   20.9925   25.6697   37.3653 C   0  0  0  0  0  0  0  0  0  0  0  0
   22.1478   25.3029   36.5001 C   0  0  0  0  0  0  0  0  0  0  0  0
   23.1937   26.1182   36.0355 C   0  0  0  0  0  0  0  0  0  0  0  0
   23.2610   27.5781   36.3999 C   0  0  0  0  0  0  0  0  0  0  0  0
  1  2  1  0
  2  3  2  0
  2  4  1  0
  4  5  2  0
  5  6  1  0
  6  7  2  0
  7  8  1  0
  8  9  2  0
  9 10  1  0
 10 11  2  0
 11 12  1  0
 12 13  2  0
 13 14  1  0
  1 15  1  0
 15 16  2  0
 16 17  1  0
 17 18  2  0
 18 19  1  0
 19 20  1  0
 20 21  1  0
 21 22  2  0
 21 23  1  0
 20 24  1  0
 24 25  1  0
 25 26  2  0
 26 27  1  0
 13  4  1  0
 26 15  1  0
 12  7  1  0
 25 18  1  0
M  END
>  <AAScore>  (1) 
5377.923397474245

>  <RootName>  (1) 
./4ZLY/04_DeltaGEst/trajectory_03/rank_00/lead_0414

$$$$
