confid_2
     RDKit          3D

 32 37  0  0  0  0  0  0  0  0999 V2000
   24.5700   26.8800   35.5900 N   0  0  0  0  0  0  0  0  0  0  0  0
   25.5000   26.4000   34.6900 C   0  0  0  0  0  0  0  0  0  0  0  0
   25.1700   25.5200   33.9100 O   0  0  0  0  0  0  0  0  0  0  0  0
   26.8400   27.0200   34.7400 C   0  0  0  0  0  0  0  0  0  0  0  0
   27.3800   27.2800   35.9400 N   0  0  0  0  0  0  0  0  0  0  0  0
   28.6200   27.7400   36.0300 N   0  0  0  0  0  0  0  0  0  0  0  0
   29.3800   28.0000   34.9600 C   0  0  0  0  0  0  0  0  0  0  0  0
   30.6700   28.5000   35.1300 C   0  0  0  0  0  0  0  0  0  0  0  0
   31.5400   28.6100   34.0300 C   0  0  0  0  0  0  0  0  0  0  0  0
   31.0900   28.2200   32.7700 C   0  0  0  0  0  0  0  0  0  0  0  0
   29.8000   27.7000   32.6000 C   0  0  0  0  0  0  0  0  0  0  0  0
   28.9600   27.5500   33.7100 C   0  0  0  0  0  0  0  0  0  0  0  0
   27.6600   27.0300   33.5900 C   0  0  0  0  0  0  0  0  0  0  0  0
   27.1600   26.7400   32.3400 N   0  0  0  0  0  0  0  0  0  0  0  0
   23.2506   26.3334   35.6847 C   0  0  0  0  0  0  0  0  0  0  0  0
   22.8810   25.6145   36.6959 N   0  0  0  0  0  0  0  0  0  0  0  0
   21.5846   25.0993   36.3869 C   0  0  0  0  0  0  0  0  0  0  0  0
   21.2030   25.4662   35.1693 C   0  0  0  0  0  0  0  0  0  0  0  0
   19.8477   25.3421   34.5416 C   0  0  1  0  0  0  0  0  0  0  0  0
   19.9750   25.6842   33.0420 C   0  0  0  0  0  0  0  0  0  0  0  0
   20.7689   26.9122   32.8206 N   0  0  0  0  0  0  0  0  0  0  0  0
   20.5006   27.6560   31.5866 C   0  0  0  0  0  0  0  0  0  0  0  0
   21.2254   29.0014   31.5586 C   0  0  0  0  0  0  0  0  0  0  0  0
   22.6543   28.8724   31.9024 N   0  0  0  0  0  0  0  0  0  0  0  0
   23.4078   28.1178   30.8846 C   0  0  0  0  0  0  0  0  0  0  0  0
   22.8746   28.3347   33.2651 C   0  0  1  0  0  0  0  0  0  0  0  0
   22.6456   29.4455   34.3011 C   0  0  0  0  0  0  0  0  0  0  0  0
   21.9961   27.1281   33.5691 C   0  0  0  0  0  0  0  0  0  0  0  0
   22.2216   26.3413   34.6387 C   0  0  0  0  0  0  0  0  0  0  0  0
   19.2929   23.9151   34.7105 C   0  0  0  0  0  0  0  0  0  0  0  0
   18.4291   23.6814   35.9421 C   0  0  0  0  0  0  0  0  0  0  0  0
   17.7822   23.7905   34.5710 C   0  0  0  0  0  0  0  0  0  0  0  0
  1  2  1  0
  2  3  2  0
  2  4  1  0
  4  5  2  0
  5  6  1  0
  6  7  2  0
  7  8  1  0
  8  9  2  0
  9 10  1  0
 10 11  2  0
 11 12  1  0
 12 13  2  0
 13 14  1  0
  1 15  1  0
 15 16  2  0
 16 17  1  0
 17 18  2  0
 18 19  1  0
 19 20  1  0
 20 21  1  0
 21 22  1  0
 22 23  1  0
 23 24  1  0
 24 25  1  0
 24 26  1  0
 26 27  1  1
 26 28  1  0
 28 29  2  0
 19 30  1  6
 30 31  1  0
 31 32  1  0
 13  4  1  0
 29 15  1  0
 32 30  1  0
 12  7  1  0
 29 18  1  0
 28 21  1  0
M  END
>  <AAScore>  (1) 
13496.746780621916

>  <RootName>  (1) 
./4ZLY/04_DeltaGEst/trajectory_05/rank_00/lead_0390

$$$$
