confid_1
     RDKit          3D

 28 31  0  0  0  0  0  0  0  0999 V2000
   24.5500   26.3900   36.2500 N   0  0  0  0  0  0  0  0  0  0  0  0
   25.6000   26.1300   35.4000 C   0  0  0  0  0  0  0  0  0  0  0  0
   25.4300   25.4300   34.4200 O   0  0  0  0  0  0  0  0  0  0  0  0
   26.9800   26.6300   35.7100 C   0  0  0  0  0  0  0  0  0  0  0  0
   27.3200   26.8200   36.9800 N   0  0  0  0  0  0  0  0  0  0  0  0
   28.4700   27.4000   37.3100 N   0  0  0  0  0  0  0  0  0  0  0  0
   29.4000   27.6300   36.3700 C   0  0  0  0  0  0  0  0  0  0  0  0
   30.6600   28.0500   36.8000 C   0  0  0  0  0  0  0  0  0  0  0  0
   31.5700   28.3600   35.7800 C   0  0  0  0  0  0  0  0  0  0  0  0
   31.3700   28.1000   34.4300 C   0  0  0  0  0  0  0  0  0  0  0  0
   30.1200   27.5900   34.0500 C   0  0  0  0  0  0  0  0  0  0  0  0
   29.1500   27.3400   35.0300 C   0  0  0  0  0  0  0  0  0  0  0  0
   27.8800   26.8900   34.6600 C   0  0  0  0  0  0  0  0  0  0  0  0
   27.4800   26.6100   33.3700 N   0  0  0  0  0  0  0  0  0  0  0  0
   23.2094   25.8910   36.0956 C   0  0  0  0  0  0  0  0  0  0  0  0
   22.8759   25.0707   35.0655 N   0  0  0  0  0  0  0  0  0  0  0  0
   21.6100   24.6086   34.9170 C   0  0  0  0  0  0  0  0  0  0  0  0
   20.6090   24.9691   35.8305 C   0  0  0  0  0  0  0  0  0  0  0  0
   19.2161   24.4180   35.6309 C   0  0  0  0  0  0  0  0  0  0  0  0
   19.1551   22.9308   36.0648 C   0  0  0  0  0  0  0  0  0  0  0  0
   18.1148   22.6074   37.0723 N   0  0  0  0  0  0  0  0  0  0  0  0
   16.8152   22.3662   36.4232 C   0  0  0  0  0  0  0  0  0  0  0  0
   17.9537   23.5561   38.2020 C   0  0  0  0  0  0  0  0  0  0  0  0
   19.2800   24.0698   38.8163 C   0  0  0  0  0  0  0  0  0  0  0  0
   19.3220   25.5734   38.7843 C   0  0  0  0  0  0  0  0  0  0  0  0
   20.0238   26.3151   37.9166 C   0  0  0  0  0  0  0  0  0  0  0  0
   20.9787   25.7980   36.9161 C   0  0  0  0  0  0  0  0  0  0  0  0
   22.2590   26.2483   36.9974 N   0  0  0  0  0  0  0  0  0  0  0  0
  1  2  1  0
  2  3  2  0
  2  4  1  0
  4  5  2  0
  5  6  1  0
  6  7  2  0
  7  8  1  0
  8  9  2  0
  9 10  1  0
 10 11  2  0
 11 12  1  0
 12 13  2  0
 13 14  1  0
  1 15  1  0
 15 16  2  0
 16 17  1  0
 17 18  2  0
 18 19  1  0
 19 20  1  0
 20 21  1  0
 21 22  1  0
 21 23  1  0
 23 24  1  0
 24 25  1  0
 25 26  2  0
 26 27  1  0
 27 28  2  0
 13  4  1  0
 28 15  1  0
 12  7  1  0
 27 18  1  0
M  END
>  <AAScore>  (1) 
2742.498470646924

>  <RootName>  (1) 
./4ZLY/04_DeltaGEst/trajectory_01/rank_00/lead_0395

$$$$
