confid_5
     RDKit          3D

 29 32  0  0  0  0  0  0  0  0999 V2000
   24.6900   26.1200   35.5300 N   0  0  0  0  0  0  0  0  0  0  0  0
   25.6600   25.6700   34.6600 C   0  0  0  0  0  0  0  0  0  0  0  0
   25.2400   25.0100   33.7200 O   0  0  0  0  0  0  0  0  0  0  0  0
   27.0300   26.2200   34.8800 C   0  0  0  0  0  0  0  0  0  0  0  0
   27.3500   26.7300   36.0700 N   0  0  0  0  0  0  0  0  0  0  0  0
   28.5700   27.1800   36.3300 N   0  0  0  0  0  0  0  0  0  0  0  0
   29.5300   27.1100   35.3900 C   0  0  0  0  0  0  0  0  0  0  0  0
   30.8300   27.5700   35.6500 C   0  0  0  0  0  0  0  0  0  0  0  0
   31.8500   27.5400   34.6900 C   0  0  0  0  0  0  0  0  0  0  0  0
   31.5100   27.1200   33.4000 C   0  0  0  0  0  0  0  0  0  0  0  0
   30.2200   26.6300   33.1100 C   0  0  0  0  0  0  0  0  0  0  0  0
   29.2400   26.6600   34.1000 C   0  0  0  0  0  0  0  0  0  0  0  0
   27.9300   26.2600   33.8100 C   0  0  0  0  0  0  0  0  0  0  0  0
   27.5200   25.7100   32.6100 N   0  0  0  0  0  0  0  0  0  0  0  0
   31.1859   28.0945   36.9929 C   0  0  0  0  0  0  0  0  0  0  0  0
   32.3787   27.8475   37.6703 C   0  0  0  0  0  0  0  0  0  0  0  0
   32.4573   28.4902   38.9149 C   0  0  0  0  0  0  0  0  0  0  0  0
   33.6070   28.3140   39.8673 C   0  0  0  0  0  0  0  0  0  0  0  0
   33.2016   27.6826   41.1445 N   0  0  0  0  0  0  0  0  0  0  0  0
   32.5625   28.6241   42.0931 C   0  0  0  0  0  0  0  0  0  0  0  0
   31.1371   29.0730   41.7014 C   0  0  0  0  0  0  0  0  0  0  0  0
   31.1030   30.0058   40.4844 C   0  0  0  0  0  0  0  0  0  0  0  0
   31.3342   29.2498   39.2147 C   0  0  0  0  0  0  0  0  0  0  0  0
   30.2440   29.1251   37.9419 S   0  0  0  0  0  0  0  0  0  0  0  0
   32.4761   26.3980   41.0084 C   0  0  0  0  0  0  0  0  0  0  0  0
   33.3970   25.2935   40.4693 C   0  0  0  0  0  0  0  0  0  0  0  0
   32.7447   23.9698   40.5746 N   0  0  0  0  0  0  0  0  0  0  0  0
   33.7601   22.9044   40.5833 C   0  0  0  0  0  0  0  0  0  0  0  0
   31.8142   23.7476   39.4527 C   0  0  0  0  0  0  0  0  0  0  0  0
  1  2  1  0
  2  3  2  0
  2  4  1  0
  4  5  2  0
  5  6  1  0
  6  7  2  0
  7  8  1  0
  8  9  2  0
  9 10  1  0
 10 11  2  0
 11 12  1  0
 12 13  2  0
 13 14  1  0
  8 15  1  0
 15 16  2  0
 16 17  1  0
 17 18  1  0
 18 19  1  0
 19 20  1  0
 20 21  1  0
 21 22  1  0
 22 23  1  0
 23 24  1  0
 19 25  1  0
 25 26  1  0
 26 27  1  0
 27 28  1  0
 27 29  1  0
 13  4  1  0
 24 15  1  0
 12  7  1  0
 23 17  2  0
M  END
>  <AAScore>  (1) 
2417.5597225038646

>  <RootName>  (1) 
./4ZLY/04_DeltaGEst/trajectory_02/rank_01/lead_0254

$$$$
