confid_11
     RDKit          3D

 31 34  0  0  0  0  0  0  0  0999 V2000
   25.3300   26.2600   34.7600 N   0  0  0  0  0  0  0  0  0  0  0  0
   26.1200   25.9200   33.6900 C   0  0  0  0  0  0  0  0  0  0  0  0
   25.6300   25.1100   32.9400 O   0  0  0  0  0  0  0  0  0  0  0  0
   27.5200   26.3800   33.4600 C   0  0  0  0  0  0  0  0  0  0  0  0
   28.1600   26.6300   34.6100 N   0  0  0  0  0  0  0  0  0  0  0  0
   29.4800   26.8500   34.5700 N   0  0  0  0  0  0  0  0  0  0  0  0
   30.1900   26.7800   33.4400 C   0  0  0  0  0  0  0  0  0  0  0  0
   31.5600   27.0500   33.5000 C   0  0  0  0  0  0  0  0  0  0  0  0
   32.2700   27.2400   32.3100 C   0  0  0  0  0  0  0  0  0  0  0  0
   31.6100   27.2500   31.0800 C   0  0  0  0  0  0  0  0  0  0  0  0
   30.2700   26.8700   31.0600 C   0  0  0  0  0  0  0  0  0  0  0  0
   29.5100   26.6900   32.2300 C   0  0  0  0  0  0  0  0  0  0  0  0
   28.1400   26.4100   32.2000 C   0  0  0  0  0  0  0  0  0  0  0  0
   27.4300   26.1300   31.0500 N   0  0  0  0  0  0  0  0  0  0  0  0
   26.6079   27.1699   30.4282 C   0  0  0  0  0  0  0  0  0  0  0  0
   26.6246   26.9843   28.9092 C   0  0  0  0  0  0  0  0  0  0  0  0
   26.1256   25.6493   28.4971 N   0  0  0  0  0  0  0  0  0  0  0  0
   26.6241   25.2956   27.1520 C   0  0  0  0  0  0  0  0  0  0  0  0
   25.6631   24.3574   26.4699 C   0  0  0  0  0  0  0  0  0  0  0  0
   24.3946   24.8162   26.0887 C   0  0  0  0  0  0  0  0  0  0  0  0
   23.4704   23.9575   25.4605 C   0  0  0  0  0  0  0  0  0  0  0  0
   23.8498   22.6191   25.2274 C   0  0  0  0  0  0  0  0  0  0  0  0
   25.1196   22.1492   25.6123 C   0  0  0  0  0  0  0  0  0  0  0  0
   25.5279   20.8239   25.3996 O   0  0  0  0  0  0  0  0  0  0  0  0
   24.7209   19.8168   24.7975 C   0  0  0  0  0  0  0  0  0  0  0  0
   26.0167   23.0239   26.2295 C   0  0  0  0  0  0  0  0  0  0  0  0
   22.1602   24.4406   25.0621 N   0  0  0  0  0  0  0  0  0  0  0  0
   21.9244   25.8751   24.8573 C   0  0  0  0  0  0  0  0  0  0  0  0
   21.0465   23.5048   24.8646 C   0  0  0  0  0  0  0  0  0  0  0  0
   26.3595   24.5616   29.4852 C   0  0  0  0  0  0  0  0  0  0  0  0
   27.5632   24.8215   30.4016 C   0  0  0  0  0  0  0  0  0  0  0  0
  1  2  1  0
  2  3  2  0
  2  4  1  0
  4  5  2  0
  5  6  1  0
  6  7  2  0
  7  8  1  0
  8  9  2  0
  9 10  1  0
 10 11  2  0
 11 12  1  0
 12 13  2  0
 13 14  1  0
 14 15  1  0
 15 16  1  0
 16 17  1  0
 17 18  1  0
 18 19  1  0
 19 20  2  0
 20 21  1  0
 21 22  2  0
 22 23  1  0
 23 24  1  0
 24 25  1  0
 23 26  2  0
 21 27  1  0
 27 28  1  0
 27 29  1  0
 17 30  1  0
 30 31  1  0
 13  4  1  0
 31 14  1  0
 12  7  1  0
 26 19  1  0
M  END
>  <AAScore>  (1) 
7.333881782122295

>  <RootName>  (1) 
./4ZLY/04_DeltaGEst/trajectory_03/rank_01/lead_0298

$$$$
