confid_9
     RDKit          3D

 28 31  0  0  0  0  0  0  0  0999 V2000
   24.4800   26.1000   36.1300 N   0  0  0  0  0  0  0  0  0  0  0  0
   25.2500   26.2500   34.9900 C   0  0  0  0  0  0  0  0  0  0  0  0
   24.7400   25.7600   33.9900 O   0  0  0  0  0  0  0  0  0  0  0  0
   26.5900   26.8900   34.9600 C   0  0  0  0  0  0  0  0  0  0  0  0
   27.0600   27.2400   36.1600 N   0  0  0  0  0  0  0  0  0  0  0  0
   28.3000   27.7100   36.2400 N   0  0  0  0  0  0  0  0  0  0  0  0
   29.0500   27.9600   35.1500 C   0  0  0  0  0  0  0  0  0  0  0  0
   30.3400   28.4900   35.2600 C   0  0  0  0  0  0  0  0  0  0  0  0
   31.1100   28.8200   34.1400 C   0  0  0  0  0  0  0  0  0  0  0  0
   30.5200   28.6700   32.8800 C   0  0  0  0  0  0  0  0  0  0  0  0
   29.2900   28.0200   32.7700 C   0  0  0  0  0  0  0  0  0  0  0  0
   28.5200   27.7100   33.8900 C   0  0  0  0  0  0  0  0  0  0  0  0
   27.2700   27.0800   33.7600 C   0  0  0  0  0  0  0  0  0  0  0  0
   26.7500   26.8800   32.4900 N   0  0  0  0  0  0  0  0  0  0  0  0
   23.4871   25.0755   36.3389 C   0  0  0  0  0  0  0  0  0  0  0  0
   23.3944   24.0103   35.4958 N   0  0  0  0  0  0  0  0  0  0  0  0
   22.4894   23.0149   35.6834 C   0  0  0  0  0  0  0  0  0  0  0  0
   21.6169   23.0464   36.7816 C   0  0  0  0  0  0  0  0  0  0  0  0
   20.5720   21.9639   36.9443 C   0  0  1  0  0  0  0  0  0  0  0  0
   21.1920   20.7310   36.7464 F   0  0  0  0  0  0  0  0  0  0  0  0
   19.9884   21.9928   38.3691 C   0  0  0  0  0  0  0  0  0  0  0  0
   19.5878   23.3682   38.7166 N   0  0  0  0  0  0  0  0  0  0  0  0
   20.7843   24.2176   38.8738 C   0  0  0  0  0  0  0  0  0  0  0  0
   21.6721   24.1513   37.6557 C   0  0  0  0  0  0  0  0  0  0  0  0
   22.6290   25.1527   37.4431 C   0  0  0  0  0  0  0  0  0  0  0  0
   18.8057   23.3699   39.9625 C   0  0  0  0  0  0  0  0  0  0  0  0
   19.5416   22.2201   35.9978 O   0  0  0  0  0  0  0  0  0  0  0  0
   18.9438   21.0315   35.5244 C   0  0  0  0  0  0  0  0  0  0  0  0
  1  2  1  0
  2  3  2  0
  2  4  1  0
  4  5  2  0
  5  6  1  0
  6  7  2  0
  7  8  1  0
  8  9  2  0
  9 10  1  0
 10 11  2  0
 11 12  1  0
 12 13  2  0
 13 14  1  0
  1 15  1  0
 15 16  2  0
 16 17  1  0
 17 18  2  0
 18 19  1  0
 19 20  1  6
 19 21  1  0
 21 22  1  0
 22 23  1  0
 23 24  1  0
 24 25  2  0
 22 26  1  0
 19 27  1  0
 27 28  1  0
 13  4  1  0
 25 15  1  0
 12  7  1  0
 24 18  1  0
M  END
>  <AAScore>  (1) 
566.5766768554696

>  <RootName>  (1) 
./4ZLY/04_DeltaGEst/trajectory_00/rank_00/lead_0107

$$$$
