confid_10
     RDKit          3D

 27 30  0  0  0  0  0  0  0  0999 V2000
   24.2000   26.2400   35.6900 N   0  0  0  0  0  0  0  0  0  0  0  0
   24.8500   26.2800   34.4800 C   0  0  0  0  0  0  0  0  0  0  0  0
   24.3100   25.7400   33.5400 O   0  0  0  0  0  0  0  0  0  0  0  0
   26.1800   26.9700   34.4700 C   0  0  0  0  0  0  0  0  0  0  0  0
   26.6500   27.6000   35.5500 N   0  0  0  0  0  0  0  0  0  0  0  0
   27.7900   28.2700   35.6200 N   0  0  0  0  0  0  0  0  0  0  0  0
   28.5400   28.3000   34.5100 C   0  0  0  0  0  0  0  0  0  0  0  0
   29.7700   28.9400   34.5600 C   0  0  0  0  0  0  0  0  0  0  0  0
   30.7000   28.8900   33.5000 C   0  0  0  0  0  0  0  0  0  0  0  0
   30.3700   28.1400   32.3700 C   0  0  0  0  0  0  0  0  0  0  0  0
   29.1200   27.5200   32.2800 C   0  0  0  0  0  0  0  0  0  0  0  0
   28.2100   27.6100   33.3300 C   0  0  0  0  0  0  0  0  0  0  0  0
   26.9700   26.9700   33.3100 C   0  0  0  0  0  0  0  0  0  0  0  0
   26.5300   26.2400   32.2200 N   0  0  0  0  0  0  0  0  0  0  0  0
   30.1407   29.6600   35.7476 N   0  0  0  0  0  0  0  0  0  0  0  0
   30.6017   28.9099   36.9316 C   0  0  0  0  0  0  0  0  0  0  0  0
   30.0280   29.5183   38.2236 C   0  0  0  0  0  0  0  0  0  0  0  0
   30.1422   31.0081   38.1709 C   0  0  0  0  0  0  0  0  0  0  0  0
   30.0745   31.9487   39.1779 C   0  0  0  0  0  0  0  0  0  0  0  0
   30.1680   33.1850   38.6428 N   0  0  0  0  0  0  0  0  0  0  0  0
   30.2667   33.0466   37.3266 N   0  0  0  0  0  0  0  0  0  0  0  0
   30.4570   34.1676   36.4091 C   0  0  0  0  0  0  0  0  0  0  0  0
   31.9498   34.4497   36.2257 C   0  0  0  0  0  0  0  0  0  0  0  0
   32.1782   35.6162   35.2696 C   0  0  0  0  0  0  0  0  0  0  0  0
   30.2453   31.7341   37.0152 C   0  0  0  0  0  0  0  0  0  0  0  0
   30.3787   31.1111   35.6582 C   0  0  0  0  0  0  0  0  0  0  0  0
   29.9004   31.6290   40.8917 Cl  0  0  0  0  0  0  0  0  0  0  0  0
  1  2  1  0
  2  3  2  0
  2  4  1  0
  4  5  2  0
  5  6  1  0
  6  7  2  0
  7  8  1  0
  8  9  2  0
  9 10  1  0
 10 11  2  0
 11 12  1  0
 12 13  2  0
 13 14  1  0
  8 15  1  0
 15 16  1  0
 16 17  1  0
 17 18  1  0
 18 19  1  0
 19 20  2  0
 20 21  1  0
 21 22  1  0
 22 23  1  0
 23 24  1  0
 21 25  1  0
 25 26  1  0
 19 27  1  0
 13  4  1  0
 26 15  1  0
 12  7  1  0
 25 18  2  0
M  END
>  <AAScore>  (1) 
-8.3289913800783

>  <RootName>  (1) 
./4ZLY/04_DeltaGEst/trajectory_04/rank_01/lead_0110

$$$$
