confid_13
     RDKit          3D

 29 32  0  0  0  0  0  0  0  0999 V2000
   24.6900   26.1200   35.5300 N   0  0  0  0  0  0  0  0  0  0  0  0
   25.6600   25.6700   34.6600 C   0  0  0  0  0  0  0  0  0  0  0  0
   25.2400   25.0100   33.7200 O   0  0  0  0  0  0  0  0  0  0  0  0
   27.0300   26.2200   34.8800 C   0  0  0  0  0  0  0  0  0  0  0  0
   27.3500   26.7300   36.0700 N   0  0  0  0  0  0  0  0  0  0  0  0
   28.5700   27.1800   36.3300 N   0  0  0  0  0  0  0  0  0  0  0  0
   29.5300   27.1100   35.3900 C   0  0  0  0  0  0  0  0  0  0  0  0
   30.8300   27.5700   35.6500 C   0  0  0  0  0  0  0  0  0  0  0  0
   31.8500   27.5400   34.6900 C   0  0  0  0  0  0  0  0  0  0  0  0
   31.5100   27.1200   33.4000 C   0  0  0  0  0  0  0  0  0  0  0  0
   30.2200   26.6300   33.1100 C   0  0  0  0  0  0  0  0  0  0  0  0
   29.2400   26.6600   34.1000 C   0  0  0  0  0  0  0  0  0  0  0  0
   27.9300   26.2600   33.8100 C   0  0  0  0  0  0  0  0  0  0  0  0
   27.5200   25.7100   32.6100 N   0  0  0  0  0  0  0  0  0  0  0  0
   31.1467   28.0543   36.9608 N   0  0  0  0  0  0  0  0  0  0  0  0
   30.8981   29.4591   37.2999 C   0  0  0  0  0  0  0  0  0  0  0  0
   30.1739   29.5468   38.6471 C   0  0  0  0  0  0  0  0  0  0  0  0
   30.7730   28.6404   39.6360 N   0  0  0  0  0  0  0  0  0  0  0  0
   30.1265   28.4701   40.9048 C   0  0  0  0  0  0  0  0  0  0  0  0
   29.2575   27.3891   41.0786 C   0  0  0  0  0  0  0  0  0  0  0  0
   28.5970   27.2200   42.2971 C   0  0  0  0  0  0  0  0  0  0  0  0
   27.6480   26.0810   42.4927 C   0  0  0  0  0  0  0  0  0  0  0  0
   28.7834   28.1234   43.2933 N   0  0  0  0  0  0  0  0  0  0  0  0
   29.6164   29.1922   43.1659 C   0  0  0  0  0  0  0  0  0  0  0  0
   29.7475   30.1326   44.3283 C   0  0  0  0  0  0  0  0  0  0  0  0
   30.3417   29.3786   41.9646 C   0  0  0  0  0  0  0  0  0  0  0  0
   31.2754   30.5540   41.7955 C   0  0  0  0  0  0  0  0  0  0  0  0
   31.9374   27.8161   39.2959 C   0  0  0  0  0  0  0  0  0  0  0  0
   31.7092   27.1249   37.9487 C   0  0  0  0  0  0  0  0  0  0  0  0
  1  2  1  0
  2  3  2  0
  2  4  1  0
  4  5  2  0
  5  6  1  0
  6  7  2  0
  7  8  1  0
  8  9  2  0
  9 10  1  0
 10 11  2  0
 11 12  1  0
 12 13  2  0
 13 14  1  0
  8 15  1  0
 15 16  1  0
 16 17  1  0
 17 18  1  0
 18 19  1  0
 19 20  2  0
 20 21  1  0
 21 22  1  0
 21 23  2  0
 23 24  1  0
 24 25  1  0
 24 26  2  0
 26 27  1  0
 18 28  1  0
 28 29  1  0
 13  4  1  0
 29 15  1  0
 12  7  1  0
 26 19  1  0
M  END
>  <AAScore>  (1) 
50.35836615871988

>  <RootName>  (1) 
./4ZLY/04_DeltaGEst/trajectory_02/rank_01/lead_0473

$$$$
