confid_12
     RDKit          3D

 30 34  0  0  0  0  0  0  0  0999 V2000
   24.5500   26.3900   36.2500 N   0  0  0  0  0  0  0  0  0  0  0  0
   25.6000   26.1300   35.4000 C   0  0  0  0  0  0  0  0  0  0  0  0
   25.4300   25.4300   34.4200 O   0  0  0  0  0  0  0  0  0  0  0  0
   26.9800   26.6300   35.7100 C   0  0  0  0  0  0  0  0  0  0  0  0
   27.3200   26.8200   36.9800 N   0  0  0  0  0  0  0  0  0  0  0  0
   28.4700   27.4000   37.3100 N   0  0  0  0  0  0  0  0  0  0  0  0
   29.4000   27.6300   36.3700 C   0  0  0  0  0  0  0  0  0  0  0  0
   30.6600   28.0500   36.8000 C   0  0  0  0  0  0  0  0  0  0  0  0
   31.5700   28.3600   35.7800 C   0  0  0  0  0  0  0  0  0  0  0  0
   31.3700   28.1000   34.4300 C   0  0  0  0  0  0  0  0  0  0  0  0
   30.1200   27.5900   34.0500 C   0  0  0  0  0  0  0  0  0  0  0  0
   29.1500   27.3400   35.0300 C   0  0  0  0  0  0  0  0  0  0  0  0
   27.8800   26.8900   34.6600 C   0  0  0  0  0  0  0  0  0  0  0  0
   27.4800   26.6100   33.3700 N   0  0  0  0  0  0  0  0  0  0  0  0
   23.3308   25.6319   36.2611 C   0  0  0  0  0  0  0  0  0  0  0  0
   22.2280   26.2270   36.6348 N   0  0  0  0  0  0  0  0  0  0  0  0
   20.9543   25.5780   36.7425 C   0  0  0  0  0  0  0  0  0  0  0  0
   20.4197   24.9741   35.6876 C   0  0  0  0  0  0  0  0  0  0  0  0
   19.3591   23.9658   35.3619 C   0  0  0  0  0  0  0  0  0  0  0  0
   19.7082   23.8416   34.0202 O   0  0  0  0  0  0  0  0  0  0  0  0
   20.6778   24.8224   34.2144 C   0  0  2  0  0  0  0  0  0  0  0  0
   22.0992   24.3532   33.8433 C   0  0  0  0  0  0  0  0  0  0  0  0
   22.7785   23.5396   34.9212 C   0  0  0  0  0  0  0  0  0  0  0  0
   22.7909   22.1400   34.8205 C   0  0  0  0  0  0  0  0  0  0  0  0
   23.4093   21.3542   35.7984 C   0  0  0  0  0  0  0  0  0  0  0  0
   24.0442   21.9827   36.8846 C   0  0  0  0  0  0  0  0  0  0  0  0
   24.0313   23.3728   36.9992 C   0  0  0  0  0  0  0  0  0  0  0  0
   23.3773   24.1599   36.0445 C   0  0  0  0  0  0  0  0  0  0  0  0
   23.3770   19.9588   35.6532 O   0  0  0  0  0  0  0  0  0  0  0  0
   23.8532   19.0409   36.6356 C   0  0  0  0  0  0  0  0  0  0  0  0
  1  2  1  0
  2  3  2  0
  2  4  1  0
  4  5  2  0
  5  6  1  0
  6  7  2  0
  7  8  1  0
  8  9  2  0
  9 10  1  0
 10 11  2  0
 11 12  1  0
 12 13  2  0
 13 14  1  0
  1 15  1  0
 15 16  2  0
 16 17  1  0
 17 18  2  0
 18 19  1  0
 19 20  1  0
 20 21  1  0
 21 22  1  1
 22 23  1  0
 23 24  2  0
 24 25  1  0
 25 26  2  0
 26 27  1  0
 27 28  2  0
 25 29  1  0
 29 30  1  0
 13  4  1  0
 28 15  1  0
 12  7  1  0
 21 18  1  0
 28 23  1  0
M  END
>  <AAScore>  (1) 
5358.925361207741

>  <RootName>  (1) 
./4ZLY/04_DeltaGEst/trajectory_01/rank_00/lead_0329

$$$$
