confid_19
     RDKit          3D

 28 31  0  0  0  0  0  0  0  0999 V2000
   25.3300   26.2600   34.7600 N   0  0  0  0  0  0  0  0  0  0  0  0
   26.1200   25.9200   33.6900 C   0  0  0  0  0  0  0  0  0  0  0  0
   25.6300   25.1100   32.9400 O   0  0  0  0  0  0  0  0  0  0  0  0
   27.5200   26.3800   33.4600 C   0  0  0  0  0  0  0  0  0  0  0  0
   28.1600   26.6300   34.6100 N   0  0  0  0  0  0  0  0  0  0  0  0
   29.4800   26.8500   34.5700 N   0  0  0  0  0  0  0  0  0  0  0  0
   30.1900   26.7800   33.4400 C   0  0  0  0  0  0  0  0  0  0  0  0
   31.5600   27.0500   33.5000 C   0  0  0  0  0  0  0  0  0  0  0  0
   32.2700   27.2400   32.3100 C   0  0  0  0  0  0  0  0  0  0  0  0
   31.6100   27.2500   31.0800 C   0  0  0  0  0  0  0  0  0  0  0  0
   30.2700   26.8700   31.0600 C   0  0  0  0  0  0  0  0  0  0  0  0
   29.5100   26.6900   32.2300 C   0  0  0  0  0  0  0  0  0  0  0  0
   28.1400   26.4100   32.2000 C   0  0  0  0  0  0  0  0  0  0  0  0
   27.4300   26.1300   31.0500 N   0  0  0  0  0  0  0  0  0  0  0  0
   26.5266   27.1412   30.4875 C   0  0  0  0  0  0  0  0  0  0  0  0
   26.7489   27.2519   28.9762 C   0  0  0  0  0  0  0  0  0  0  0  0
   26.8354   25.9261   28.3493 N   0  0  0  0  0  0  0  0  0  0  0  0
   27.0634   25.8354   26.9352 C   0  0  0  0  0  0  0  0  0  0  0  0
   28.3215   26.1854   26.4225 C   0  0  0  0  0  0  0  0  0  0  0  0
   28.5804   26.0853   25.0513 C   0  0  0  0  0  0  0  0  0  0  0  0
   27.5799   25.6330   24.1849 C   0  0  0  0  0  0  0  0  0  0  0  0
   26.3224   25.2863   24.6855 C   0  0  0  0  0  0  0  0  0  0  0  0
   26.0459   25.3968   26.0583 C   0  0  0  0  0  0  0  0  0  0  0  0
   24.6869   25.0103   26.5739 C   0  0  0  0  0  0  0  0  0  0  0  0
   29.8769   26.4384   24.5348 C   0  0  0  0  0  0  0  0  0  0  0  0
   30.9197   26.7214   24.1201 N   0  0  0  0  0  0  0  0  0  0  0  0
   26.7111   24.7046   29.1528 C   0  0  0  0  0  0  0  0  0  0  0  0
   27.5855   24.8164   30.4052 C   0  0  0  0  0  0  0  0  0  0  0  0
  1  2  1  0
  2  3  2  0
  2  4  1  0
  4  5  2  0
  5  6  1  0
  6  7  2  0
  7  8  1  0
  8  9  2  0
  9 10  1  0
 10 11  2  0
 11 12  1  0
 12 13  2  0
 13 14  1  0
 14 15  1  0
 15 16  1  0
 16 17  1  0
 17 18  1  0
 18 19  2  0
 19 20  1  0
 20 21  2  0
 21 22  1  0
 22 23  2  0
 23 24  1  0
 20 25  1  0
 25 26  3  0
 17 27  1  0
 27 28  1  0
 13  4  1  0
 28 14  1  0
 12  7  1  0
 23 18  1  0
M  END
>  <AAScore>  (1) 
18.76781845439783

>  <RootName>  (1) 
./4ZLY/04_DeltaGEst/trajectory_03/rank_01/lead_0494

$$$$
