confid_4
     RDKit          3D

 29 32  0  0  0  0  0  0  0  0999 V2000
   24.5700   26.8800   35.5900 N   0  0  0  0  0  0  0  0  0  0  0  0
   25.5000   26.4000   34.6900 C   0  0  0  0  0  0  0  0  0  0  0  0
   25.1700   25.5200   33.9100 O   0  0  0  0  0  0  0  0  0  0  0  0
   26.8400   27.0200   34.7400 C   0  0  0  0  0  0  0  0  0  0  0  0
   27.3800   27.2800   35.9400 N   0  0  0  0  0  0  0  0  0  0  0  0
   28.6200   27.7400   36.0300 N   0  0  0  0  0  0  0  0  0  0  0  0
   29.3800   28.0000   34.9600 C   0  0  0  0  0  0  0  0  0  0  0  0
   30.6700   28.5000   35.1300 C   0  0  0  0  0  0  0  0  0  0  0  0
   31.5400   28.6100   34.0300 C   0  0  0  0  0  0  0  0  0  0  0  0
   31.0900   28.2200   32.7700 C   0  0  0  0  0  0  0  0  0  0  0  0
   29.8000   27.7000   32.6000 C   0  0  0  0  0  0  0  0  0  0  0  0
   28.9600   27.5500   33.7100 C   0  0  0  0  0  0  0  0  0  0  0  0
   27.6600   27.0300   33.5900 C   0  0  0  0  0  0  0  0  0  0  0  0
   27.1600   26.7400   32.3400 N   0  0  0  0  0  0  0  0  0  0  0  0
   33.1955   29.1919   34.2616 S   0  0  0  0  0  6  0  0  0  0  0  0
   34.0484   28.7294   33.1133 O   0  0  0  0  0  0  0  0  0  0  0  0
   33.7322   28.5543   35.5122 O   0  0  0  0  0  0  0  0  0  0  0  0
   33.3895   30.9821   34.4323 C   0  0  2  0  0  0  0  0  0  0  0  0
   32.3350   31.6557   35.3031 C   0  0  0  0  0  0  0  0  0  0  0  0
   31.9254   32.5889   34.2383 N   0  0  0  0  0  0  0  0  0  0  0  0
   32.8869   31.9224   33.3219 C   0  0  0  0  0  0  0  0  0  0  0  0
   32.1290   31.3091   32.1469 C   0  0  0  0  0  0  0  0  0  0  0  0
   32.1385   32.3909   31.0802 C   0  0  0  0  0  0  0  0  0  0  0  0
   33.4315   33.1779   31.2848 C   0  0  0  0  0  0  0  0  0  0  0  0
   33.9873   32.7710   32.6497 C   0  0  0  0  0  0  0  0  0  0  0  0
   32.1542   34.0006   34.6195 C   0  0  0  0  0  0  0  0  0  0  0  0
   33.3893   34.2014   35.2198 F   0  0  0  0  0  0  0  0  0  0  0  0
   31.1745   34.3790   35.5189 F   0  0  0  0  0  0  0  0  0  0  0  0
   32.0412   34.8142   33.5077 F   0  0  0  0  0  0  0  0  0  0  0  0
  1  2  1  0
  2  3  2  0
  2  4  1  0
  4  5  2  0
  5  6  1  0
  6  7  2  0
  7  8  1  0
  8  9  2  0
  9 10  1  0
 10 11  2  0
 11 12  1  0
 12 13  2  0
 13 14  1  0
  9 15  1  0
 15 16  2  0
 15 17  2  0
 18 15  1  6
 18 19  1  0
 19 20  1  0
 20 21  1  0
 21 22  1  0
 22 23  1  0
 23 24  1  0
 24 25  1  0
 20 26  1  0
 26 27  1  0
 26 28  1  0
 26 29  1  0
 13  4  1  0
 21 18  1  0
 12  7  1  0
 25 21  1  0
M  END
>  <AAScore>  (1) 
-5.740735153212726

>  <RootName>  (1) 
./4ZLY/04_DeltaGEst/trajectory_05/rank_01/lead_0351

$$$$
