confid_16
     RDKit          3D

 27 29  0  0  0  0  0  0  0  0999 V2000
   24.5700   26.8800   35.5900 N   0  0  0  0  0  0  0  0  0  0  0  0
   25.5000   26.4000   34.6900 C   0  0  0  0  0  0  0  0  0  0  0  0
   25.1700   25.5200   33.9100 O   0  0  0  0  0  0  0  0  0  0  0  0
   26.8400   27.0200   34.7400 C   0  0  0  0  0  0  0  0  0  0  0  0
   27.3800   27.2800   35.9400 N   0  0  0  0  0  0  0  0  0  0  0  0
   28.6200   27.7400   36.0300 N   0  0  0  0  0  0  0  0  0  0  0  0
   29.3800   28.0000   34.9600 C   0  0  0  0  0  0  0  0  0  0  0  0
   30.6700   28.5000   35.1300 C   0  0  0  0  0  0  0  0  0  0  0  0
   31.5400   28.6100   34.0300 C   0  0  0  0  0  0  0  0  0  0  0  0
   31.0900   28.2200   32.7700 C   0  0  0  0  0  0  0  0  0  0  0  0
   29.8000   27.7000   32.6000 C   0  0  0  0  0  0  0  0  0  0  0  0
   28.9600   27.5500   33.7100 C   0  0  0  0  0  0  0  0  0  0  0  0
   27.6600   27.0300   33.5900 C   0  0  0  0  0  0  0  0  0  0  0  0
   27.1600   26.7400   32.3400 N   0  0  0  0  0  0  0  0  0  0  0  0
   33.1637   29.2659   34.2217 S   0  0  0  0  0  6  0  0  0  0  0  0
   33.5367   29.2821   35.6781 O   0  0  0  0  0  0  0  0  0  0  0  0
   34.1315   28.3796   33.4884 O   0  0  0  0  0  0  0  0  0  0  0  0
   33.2071   30.9320   33.5309 C   0  0  2  0  0  0  0  0  0  0  0  0
   34.6484   31.5106   33.4968 C   0  0  1  0  0  0  0  0  0  0  0  0
   34.8295   32.5677   32.3818 C   0  0  0  0  0  0  0  0  0  0  0  0
   33.9643   33.8455   32.5157 C   0  0  1  0  0  0  0  0  0  0  0  0
   34.4403   34.8839   31.4877 C   0  0  0  0  0  0  0  0  0  0  0  0
   32.4562   33.5574   32.3069 C   0  0  0  0  0  0  0  0  0  0  0  0
   31.7374   33.1390   33.5980 C   0  0  0  0  0  0  0  0  0  0  0  0
   32.2287   31.8600   34.2274 C   0  0  0  0  0  0  0  0  0  0  0  0
   31.8475   31.6015   35.3598 O   0  0  0  0  0  0  0  0  0  0  0  0
   35.1512   32.0235   34.8606 C   0  0  0  0  0  0  0  0  0  0  0  0
  1  2  1  0
  2  3  2  0
  2  4  1  0
  4  5  2  0
  5  6  1  0
  6  7  2  0
  7  8  1  0
  8  9  2  0
  9 10  1  0
 10 11  2  0
 11 12  1  0
 12 13  2  0
 13 14  1  0
  9 15  1  0
 15 16  2  0
 15 17  2  0
 18 15  1  1
 18 19  1  0
 19 20  1  0
 20 21  1  0
 21 22  1  6
 21 23  1  0
 23 24  1  0
 24 25  1  0
 25 26  2  0
 19 27  1  1
 13  4  1  0
 25 18  1  0
 12  7  1  0
M  END
>  <AAScore>  (1) 
-4.331727796194759

>  <RootName>  (1) 
./4ZLY/04_DeltaGEst/trajectory_05/rank_01/lead_0295

$$$$
