confid_18
     RDKit          3D

 27 30  0  0  0  0  0  0  0  0999 V2000
   24.5500   26.3900   36.2500 N   0  0  0  0  0  0  0  0  0  0  0  0
   25.6000   26.1300   35.4000 C   0  0  0  0  0  0  0  0  0  0  0  0
   25.4300   25.4300   34.4200 O   0  0  0  0  0  0  0  0  0  0  0  0
   26.9800   26.6300   35.7100 C   0  0  0  0  0  0  0  0  0  0  0  0
   27.3200   26.8200   36.9800 N   0  0  0  0  0  0  0  0  0  0  0  0
   28.4700   27.4000   37.3100 N   0  0  0  0  0  0  0  0  0  0  0  0
   29.4000   27.6300   36.3700 C   0  0  0  0  0  0  0  0  0  0  0  0
   30.6600   28.0500   36.8000 C   0  0  0  0  0  0  0  0  0  0  0  0
   31.5700   28.3600   35.7800 C   0  0  0  0  0  0  0  0  0  0  0  0
   31.3700   28.1000   34.4300 C   0  0  0  0  0  0  0  0  0  0  0  0
   30.1200   27.5900   34.0500 C   0  0  0  0  0  0  0  0  0  0  0  0
   29.1500   27.3400   35.0300 C   0  0  0  0  0  0  0  0  0  0  0  0
   27.8800   26.8900   34.6600 C   0  0  0  0  0  0  0  0  0  0  0  0
   27.4800   26.6100   33.3700 N   0  0  0  0  0  0  0  0  0  0  0  0
   23.1565   25.9801   36.0157 C   0  0  0  0  0  0  0  0  0  0  0  0
   23.0143   24.4347   35.9586 C   0  0  0  0  0  0  0  0  0  0  0  0
   22.4037   23.9281   34.6446 C   0  0  0  0  0  0  0  0  0  0  0  0
   21.1813   24.6840   34.3184 N   0  0  0  0  0  0  0  0  0  0  0  0
   19.9977   24.0452   33.7848 C   0  0  0  0  0  0  0  0  0  0  0  0
   18.9199   24.6973   33.7129 O   0  0  0  0  0  0  0  0  0  0  0  0
   19.9897   22.6150   33.3137 C   0  0  0  0  0  0  0  0  0  0  0  0
   19.5854   21.6634   34.4544 C   0  0  0  0  0  0  0  0  0  0  0  0
   19.4933   20.2023   34.0188 C   0  0  0  0  0  0  0  0  0  0  0  0
   18.0050   20.1991   34.3414 C   0  0  0  0  0  0  0  0  0  0  0  0
   18.0887   21.6581   34.7676 C   0  0  0  0  0  0  0  0  0  0  0  0
   21.1806   26.1518   34.4466 C   0  0  0  0  0  0  0  0  0  0  0  0
   22.5725   26.6980   34.7837 C   0  0  0  0  0  0  0  0  0  0  0  0
  1  2  1  0
  2  3  2  0
  2  4  1  0
  4  5  2  0
  5  6  1  0
  6  7  2  0
  7  8  1  0
  8  9  2  0
  9 10  1  0
 10 11  2  0
 11 12  1  0
 12 13  2  0
 13 14  1  0
  1 15  1  0
 15 16  1  0
 16 17  1  0
 17 18  1  0
 18 19  1  0
 19 20  2  0
 19 21  1  0
 21 22  1  0
 22 23  1  0
 23 24  1  0
 24 25  1  0
 18 26  1  0
 26 27  1  0
 13  4  1  0
 27 15  1  0
 12  7  1  0
 25 22  1  0
M  END
>  <AAScore>  (1) 
695.4084040676765

>  <RootName>  (1) 
./4ZLY/04_DeltaGEst/trajectory_01/rank_00/lead_0152

$$$$
