confid_6
     RDKit          3D

 29 32  0  0  0  0  0  0  0  0999 V2000
   24.5500   26.3900   36.2500 N   0  0  0  0  0  0  0  0  0  0  0  0
   25.6000   26.1300   35.4000 C   0  0  0  0  0  0  0  0  0  0  0  0
   25.4300   25.4300   34.4200 O   0  0  0  0  0  0  0  0  0  0  0  0
   26.9800   26.6300   35.7100 C   0  0  0  0  0  0  0  0  0  0  0  0
   27.3200   26.8200   36.9800 N   0  0  0  0  0  0  0  0  0  0  0  0
   28.4700   27.4000   37.3100 N   0  0  0  0  0  0  0  0  0  0  0  0
   29.4000   27.6300   36.3700 C   0  0  0  0  0  0  0  0  0  0  0  0
   30.6600   28.0500   36.8000 C   0  0  0  0  0  0  0  0  0  0  0  0
   31.5700   28.3600   35.7800 C   0  0  0  0  0  0  0  0  0  0  0  0
   31.3700   28.1000   34.4300 C   0  0  0  0  0  0  0  0  0  0  0  0
   30.1200   27.5900   34.0500 C   0  0  0  0  0  0  0  0  0  0  0  0
   29.1500   27.3400   35.0300 C   0  0  0  0  0  0  0  0  0  0  0  0
   27.8800   26.8900   34.6600 C   0  0  0  0  0  0  0  0  0  0  0  0
   27.4800   26.6100   33.3700 N   0  0  0  0  0  0  0  0  0  0  0  0
   30.9948   28.3115   38.2202 C   0  0  0  0  0  0  0  0  0  0  0  0
   30.2134   29.0523   39.0968 C   0  0  0  0  0  0  0  0  0  0  0  0
   30.8981   29.0625   40.2946 C   0  0  0  0  0  0  0  0  0  0  0  0
   30.4675   29.6777   41.5896 C   0  0  0  0  0  0  0  0  0  0  0  0
   31.4927   29.5632   42.6590 N   0  0  0  0  0  0  0  0  0  0  0  0
   32.8256   29.0833   42.3163 C   0  0  0  0  0  0  0  0  0  0  0  0
   33.8392   29.4870   42.9461 O   0  0  0  0  0  0  0  0  0  0  0  0
   33.0299   28.0892   41.2065 C   0  0  0  0  0  0  0  0  0  0  0  0
   32.0528   28.3498   40.1107 C   0  0  0  0  0  0  0  0  0  0  0  0
   32.1113   27.8680   38.8500 N   0  0  0  0  0  0  0  0  0  0  0  0
   33.1768   27.0369   38.2874 C   0  0  0  0  0  0  0  0  0  0  0  0
   31.1998   30.0701   44.0370 C   0  0  0  0  0  0  0  0  0  0  0  0
   31.7281   29.0763   45.0987 C   0  0  0  0  0  0  0  0  0  0  0  0
   31.8565   31.4510   44.2354 C   0  0  0  0  0  0  0  0  0  0  0  0
   29.6779   30.2312   44.2903 C   0  0  0  0  0  0  0  0  0  0  0  0
  1  2  1  0
  2  3  2  0
  2  4  1  0
  4  5  2  0
  5  6  1  0
  6  7  2  0
  7  8  1  0
  8  9  2  0
  9 10  1  0
 10 11  2  0
 11 12  1  0
 12 13  2  0
 13 14  1  0
  8 15  1  0
 15 16  2  0
 16 17  1  0
 17 18  1  0
 18 19  1  0
 19 20  1  0
 20 21  2  0
 20 22  1  0
 22 23  1  0
 23 24  1  0
 24 25  1  0
 19 26  1  0
 26 27  1  0
 26 28  1  0
 26 29  1  0
 13  4  1  0
 24 15  1  0
 12  7  1  0
 23 17  2  0
M  END
>  <AAScore>  (1) 
8088.996337150338

>  <RootName>  (1) 
./4ZLY/04_DeltaGEst/trajectory_01/rank_01/lead_0118

$$$$
