confid_9
     RDKit          3D

 29 32  0  0  0  0  0  0  0  0999 V2000
   24.6900   26.1200   35.5300 N   0  0  0  0  0  0  0  0  0  0  0  0
   25.6600   25.6700   34.6600 C   0  0  0  0  0  0  0  0  0  0  0  0
   25.2400   25.0100   33.7200 O   0  0  0  0  0  0  0  0  0  0  0  0
   27.0300   26.2200   34.8800 C   0  0  0  0  0  0  0  0  0  0  0  0
   27.3500   26.7300   36.0700 N   0  0  0  0  0  0  0  0  0  0  0  0
   28.5700   27.1800   36.3300 N   0  0  0  0  0  0  0  0  0  0  0  0
   29.5300   27.1100   35.3900 C   0  0  0  0  0  0  0  0  0  0  0  0
   30.8300   27.5700   35.6500 C   0  0  0  0  0  0  0  0  0  0  0  0
   31.8500   27.5400   34.6900 C   0  0  0  0  0  0  0  0  0  0  0  0
   31.5100   27.1200   33.4000 C   0  0  0  0  0  0  0  0  0  0  0  0
   30.2200   26.6300   33.1100 C   0  0  0  0  0  0  0  0  0  0  0  0
   29.2400   26.6600   34.1000 C   0  0  0  0  0  0  0  0  0  0  0  0
   27.9300   26.2600   33.8100 C   0  0  0  0  0  0  0  0  0  0  0  0
   27.5200   25.7100   32.6100 N   0  0  0  0  0  0  0  0  0  0  0  0
   23.3325   25.6303   35.6212 C   0  0  0  0  0  0  0  0  0  0  0  0
   22.8348   24.8941   34.6672 N   0  0  0  0  0  0  0  0  0  0  0  0
   21.5121   24.3498   34.6406 C   0  0  0  0  0  0  0  0  0  0  0  0
   20.5047   24.9051   33.9397 C   0  0  0  0  0  0  0  0  0  0  0  0
   19.2560   24.0829   33.6891 C   0  0  0  0  0  0  0  0  0  0  0  0
   19.2161   23.4827   32.3300 N   0  0  0  0  0  0  0  0  0  0  0  0
   20.2035   23.9852   31.3428 C   0  0  0  0  0  0  0  0  0  0  0  0
   20.0463   25.4736   30.9538 C   0  0  0  0  0  0  0  0  0  0  0  0
   19.7713   26.4584   32.1047 C   0  0  0  0  0  0  0  0  0  0  0  0
   20.6095   26.2015   33.2921 N   0  0  0  0  0  0  0  0  0  0  0  0
   21.2732   27.3486   33.9466 C   0  0  0  0  0  0  0  0  0  0  0  0
   20.7811   27.5504   35.4013 C   0  0  0  0  0  0  0  0  0  0  0  0
   21.9154   27.5454   36.4420 C   0  0  0  0  0  0  0  0  0  0  0  0
   22.4645   26.1419   36.7483 C   0  0  0  0  0  0  0  0  0  0  0  0
   17.8505   23.4332   31.7841 C   0  0  0  0  0  0  0  0  0  0  0  0
  1  2  1  0
  2  3  2  0
  2  4  1  0
  4  5  2  0
  5  6  1  0
  6  7  2  0
  7  8  1  0
  8  9  2  0
  9 10  1  0
 10 11  2  0
 11 12  1  0
 12 13  2  0
 13 14  1  0
  1 15  1  0
 15 16  2  0
 16 17  1  0
 17 18  2  0
 18 19  1  0
 19 20  1  0
 20 21  1  0
 21 22  1  0
 22 23  1  0
 23 24  1  0
 24 25  1  0
 25 26  1  0
 26 27  1  0
 27 28  1  0
 20 29  1  0
 13  4  1  0
 28 15  1  0
 12  7  1  0
 24 18  1  0
M  END
>  <AAScore>  (1) 
1720.960248142747

>  <RootName>  (1) 
./4ZLY/04_DeltaGEst/trajectory_02/rank_00/lead_0043

$$$$
