confid_12
     RDKit          3D

 27 30  0  0  0  0  0  0  0  0999 V2000
   24.6900   26.1200   35.5300 N   0  0  0  0  0  0  0  0  0  0  0  0
   25.6600   25.6700   34.6600 C   0  0  0  0  0  0  0  0  0  0  0  0
   25.2400   25.0100   33.7200 O   0  0  0  0  0  0  0  0  0  0  0  0
   27.0300   26.2200   34.8800 C   0  0  0  0  0  0  0  0  0  0  0  0
   27.3500   26.7300   36.0700 N   0  0  0  0  0  0  0  0  0  0  0  0
   28.5700   27.1800   36.3300 N   0  0  0  0  0  0  0  0  0  0  0  0
   29.5300   27.1100   35.3900 C   0  0  0  0  0  0  0  0  0  0  0  0
   30.8300   27.5700   35.6500 C   0  0  0  0  0  0  0  0  0  0  0  0
   31.8500   27.5400   34.6900 C   0  0  0  0  0  0  0  0  0  0  0  0
   31.5100   27.1200   33.4000 C   0  0  0  0  0  0  0  0  0  0  0  0
   30.2200   26.6300   33.1100 C   0  0  0  0  0  0  0  0  0  0  0  0
   29.2400   26.6600   34.1000 C   0  0  0  0  0  0  0  0  0  0  0  0
   27.9300   26.2600   33.8100 C   0  0  0  0  0  0  0  0  0  0  0  0
   27.5200   25.7100   32.6100 N   0  0  0  0  0  0  0  0  0  0  0  0
   23.6365   25.2862   36.0424 C   0  0  0  0  0  0  0  0  0  0  0  0
   23.5540   23.9652   35.6863 N   0  0  0  0  0  0  0  0  0  0  0  0
   22.5881   23.1396   36.1808 C   0  0  0  0  0  0  0  0  0  0  0  0
   21.6578   23.6526   37.0853 C   0  0  0  0  0  0  0  0  0  0  0  0
   20.5802   22.9146   37.8020 C   0  0  2  0  0  0  0  0  0  0  0  0
   19.7305   24.0786   38.4141 C   0  0  1  0  0  0  0  0  0  0  0  0
   18.6853   24.3500   37.5396 F   0  0  0  0  0  0  0  0  0  0  0  0
   19.1195   23.8063   39.8026 C   0  0  0  0  0  0  0  0  0  0  0  0
   18.2456   22.7126   39.7380 O   0  0  0  0  0  0  0  0  0  0  0  0
   20.6611   25.3170   38.4363 C   0  0  0  0  0  0  0  0  0  0  0  0
   21.7142   24.9722   37.4534 C   0  0  0  0  0  0  0  0  0  0  0  0
   22.7037   25.8178   36.9521 C   0  0  0  0  0  0  0  0  0  0  0  0
   21.2155   21.9599   38.8266 C   0  0  0  0  0  0  0  0  0  0  0  0
  1  2  1  0
  2  3  2  0
  2  4  1  0
  4  5  2  0
  5  6  1  0
  6  7  2  0
  7  8  1  0
  8  9  2  0
  9 10  1  0
 10 11  2  0
 11 12  1  0
 12 13  2  0
 13 14  1  0
  1 15  1  0
 15 16  2  0
 16 17  1  0
 17 18  2  0
 18 19  1  0
 19 20  1  0
 20 21  1  6
 20 22  1  0
 22 23  1  0
 20 24  1  0
 24 25  1  0
 25 26  2  0
 19 27  1  1
 13  4  1  0
 26 15  1  0
 12  7  1  0
 25 18  1  0
M  END
>  <AAScore>  (1) 
1382.2889745684377

>  <RootName>  (1) 
./4ZLY/04_DeltaGEst/trajectory_02/rank_00/lead_0439

$$$$
