confid_13
     RDKit          3D

 30 34  0  0  0  0  0  0  0  0999 V2000
   24.2000   26.2400   35.6900 N   0  0  0  0  0  0  0  0  0  0  0  0
   24.8500   26.2800   34.4800 C   0  0  0  0  0  0  0  0  0  0  0  0
   24.3100   25.7400   33.5400 O   0  0  0  0  0  0  0  0  0  0  0  0
   26.1800   26.9700   34.4700 C   0  0  0  0  0  0  0  0  0  0  0  0
   26.6500   27.6000   35.5500 N   0  0  0  0  0  0  0  0  0  0  0  0
   27.7900   28.2700   35.6200 N   0  0  0  0  0  0  0  0  0  0  0  0
   28.5400   28.3000   34.5100 C   0  0  0  0  0  0  0  0  0  0  0  0
   29.7700   28.9400   34.5600 C   0  0  0  0  0  0  0  0  0  0  0  0
   30.7000   28.8900   33.5000 C   0  0  0  0  0  0  0  0  0  0  0  0
   30.3700   28.1400   32.3700 C   0  0  0  0  0  0  0  0  0  0  0  0
   29.1200   27.5200   32.2800 C   0  0  0  0  0  0  0  0  0  0  0  0
   28.2100   27.6100   33.3300 C   0  0  0  0  0  0  0  0  0  0  0  0
   26.9700   26.9700   33.3100 C   0  0  0  0  0  0  0  0  0  0  0  0
   26.5300   26.2400   32.2200 N   0  0  0  0  0  0  0  0  0  0  0  0
   23.0790   25.3805   35.9900 C   0  0  0  0  0  0  0  0  0  0  0  0
   22.9622   24.2586   35.3218 N   0  0  0  0  0  0  0  0  0  0  0  0
   21.9910   23.2259   35.4999 C   0  0  0  0  0  0  0  0  0  0  0  0
   21.9146   22.5497   36.6506 C   0  0  0  0  0  0  0  0  0  0  0  0
   22.6988   23.0179   37.8310 C   0  0  0  0  0  0  0  0  0  0  0  0
   21.7236   23.8726   38.4739 N   0  0  0  0  0  0  0  0  0  0  0  0
   20.4902   23.1642   38.2690 C   0  0  0  0  0  0  0  0  0  0  0  0
   19.4414   23.3962   38.9245 O   0  0  0  0  0  0  0  0  0  0  0  0
   20.5647   22.1718   37.1654 C   0  0  0  0  0  0  0  0  0  0  0  0
   21.6996   25.3005   38.2491 C   0  0  0  0  0  0  0  0  0  0  0  0
   21.1014   26.1117   39.2493 C   0  0  0  0  0  0  0  0  0  0  0  0
   20.8016   25.5773   40.6270 C   0  0  0  0  0  0  0  0  0  0  0  0
   20.7308   27.4293   38.9595 C   0  0  0  0  0  0  0  0  0  0  0  0
   20.9914   27.9764   37.7107 C   0  0  0  0  0  0  0  0  0  0  0  0
   21.6708   27.2347   36.7509 C   0  0  0  0  0  0  0  0  0  0  0  0
   22.0735   25.9057   36.9917 C   0  0  0  0  0  0  0  0  0  0  0  0
  1  2  1  0
  2  3  2  0
  2  4  1  0
  4  5  2  0
  5  6  1  0
  6  7  2  0
  7  8  1  0
  8  9  2  0
  9 10  1  0
 10 11  2  0
 11 12  1  0
 12 13  2  0
 13 14  1  0
  1 15  1  0
 15 16  2  0
 16 17  1  0
 17 18  2  0
 18 19  1  0
 19 20  1  0
 20 21  1  0
 21 22  2  0
 21 23  1  0
 20 24  1  0
 24 25  2  0
 25 26  1  0
 25 27  1  0
 27 28  2  0
 28 29  1  0
 29 30  2  0
 13  4  1  0
 30 15  1  0
 12  7  1  0
 23 18  1  0
 30 24  1  0
M  END
>  <AAScore>  (1) 
4258.340307448694

>  <RootName>  (1) 
./4ZLY/04_DeltaGEst/trajectory_04/rank_00/lead_0113

$$$$
