confid_15
     RDKit          3D

 27 30  0  0  0  0  0  0  0  0999 V2000
   24.6900   26.1200   35.5300 N   0  0  0  0  0  0  0  0  0  0  0  0
   25.6600   25.6700   34.6600 C   0  0  0  0  0  0  0  0  0  0  0  0
   25.2400   25.0100   33.7200 O   0  0  0  0  0  0  0  0  0  0  0  0
   27.0300   26.2200   34.8800 C   0  0  0  0  0  0  0  0  0  0  0  0
   27.3500   26.7300   36.0700 N   0  0  0  0  0  0  0  0  0  0  0  0
   28.5700   27.1800   36.3300 N   0  0  0  0  0  0  0  0  0  0  0  0
   29.5300   27.1100   35.3900 C   0  0  0  0  0  0  0  0  0  0  0  0
   30.8300   27.5700   35.6500 C   0  0  0  0  0  0  0  0  0  0  0  0
   31.8500   27.5400   34.6900 C   0  0  0  0  0  0  0  0  0  0  0  0
   31.5100   27.1200   33.4000 C   0  0  0  0  0  0  0  0  0  0  0  0
   30.2200   26.6300   33.1100 C   0  0  0  0  0  0  0  0  0  0  0  0
   29.2400   26.6600   34.1000 C   0  0  0  0  0  0  0  0  0  0  0  0
   27.9300   26.2600   33.8100 C   0  0  0  0  0  0  0  0  0  0  0  0
   27.5200   25.7100   32.6100 N   0  0  0  0  0  0  0  0  0  0  0  0
   23.2747   26.1258   35.2587 C   0  0  0  0  0  0  0  0  0  0  0  0
   22.4078   25.8695   36.2746 N   0  0  0  0  0  0  0  0  0  0  0  0
   21.0627   25.8384   36.0896 C   0  0  0  0  0  0  0  0  0  0  0  0
   20.5156   26.0673   34.8193 C   0  0  0  0  0  0  0  0  0  0  0  0
   19.0162   26.0414   34.6199 C   0  0  0  0  0  0  0  0  0  0  0  0
   18.5726   25.1104   33.5135 C   0  0  0  0  0  0  0  0  0  0  0  0
   17.3771   24.9201   33.3481 O   0  0  0  0  0  0  0  0  0  0  0  0
   19.5529   24.4518   32.5764 C   0  0  0  0  0  0  0  0  0  0  0  0
   20.2422   25.4887   31.6764 C   0  0  0  0  0  0  0  0  0  0  0  0
   20.8610   26.5934   32.4299 N   0  0  0  0  0  0  0  0  0  0  0  0
   21.2921   27.7750   31.6777 C   0  0  0  0  0  0  0  0  0  0  0  0
   21.3857   26.3732   33.7535 C   0  0  0  0  0  0  0  0  0  0  0  0
   22.7687   26.4176   33.9812 C   0  0  0  0  0  0  0  0  0  0  0  0
  1  2  1  0
  2  3  2  0
  2  4  1  0
  4  5  2  0
  5  6  1  0
  6  7  2  0
  7  8  1  0
  8  9  2  0
  9 10  1  0
 10 11  2  0
 11 12  1  0
 12 13  2  0
 13 14  1  0
  1 15  1  0
 15 16  2  0
 16 17  1  0
 17 18  2  0
 18 19  1  0
 19 20  1  0
 20 21  2  0
 20 22  1  0
 22 23  1  0
 23 24  1  0
 24 25  1  0
 24 26  1  0
 26 27  2  0
 13  4  1  0
 27 15  1  0
 12  7  1  0
 26 18  1  0
M  END
>  <AAScore>  (1) 
449.22004190798793

>  <RootName>  (1) 
./4ZLY/04_DeltaGEst/trajectory_02/rank_00/lead_0030

$$$$
