confid_14
     RDKit          3D

 27 30  0  0  0  0  0  0  0  0999 V2000
   24.5500   26.3900   36.2500 N   0  0  0  0  0  0  0  0  0  0  0  0
   25.6000   26.1300   35.4000 C   0  0  0  0  0  0  0  0  0  0  0  0
   25.4300   25.4300   34.4200 O   0  0  0  0  0  0  0  0  0  0  0  0
   26.9800   26.6300   35.7100 C   0  0  0  0  0  0  0  0  0  0  0  0
   27.3200   26.8200   36.9800 N   0  0  0  0  0  0  0  0  0  0  0  0
   28.4700   27.4000   37.3100 N   0  0  0  0  0  0  0  0  0  0  0  0
   29.4000   27.6300   36.3700 C   0  0  0  0  0  0  0  0  0  0  0  0
   30.6600   28.0500   36.8000 C   0  0  0  0  0  0  0  0  0  0  0  0
   31.5700   28.3600   35.7800 C   0  0  0  0  0  0  0  0  0  0  0  0
   31.3700   28.1000   34.4300 C   0  0  0  0  0  0  0  0  0  0  0  0
   30.1200   27.5900   34.0500 C   0  0  0  0  0  0  0  0  0  0  0  0
   29.1500   27.3400   35.0300 C   0  0  0  0  0  0  0  0  0  0  0  0
   27.8800   26.8900   34.6600 C   0  0  0  0  0  0  0  0  0  0  0  0
   27.4800   26.6100   33.3700 N   0  0  0  0  0  0  0  0  0  0  0  0
   23.2549   25.6954   36.1679 C   0  0  0  0  0  0  0  0  0  0  0  0
   22.1916   26.4131   37.0404 C   0  0  0  0  0  0  0  0  0  0  0  0
   22.1001   25.8573   38.4764 C   0  0  0  0  0  0  0  0  0  0  0  0
   23.3646   25.2321   38.8809 N   0  0  0  0  0  0  0  0  0  0  0  0
   24.1994   25.8828   39.8566 C   0  0  0  0  0  0  0  0  0  0  0  0
   24.7786   25.1713   40.9337 C   0  0  0  0  0  0  0  0  0  0  0  0
   24.5120   23.7086   41.1583 C   0  0  0  0  0  0  0  0  0  0  0  0
   25.6317   25.8583   41.8111 C   0  0  0  0  0  0  0  0  0  0  0  0
   25.8652   27.2225   41.6410 C   0  0  0  0  0  0  0  0  0  0  0  0
   25.2449   27.8954   40.5903 C   0  0  0  0  0  0  0  0  0  0  0  0
   24.4394   27.2185   39.7317 N   0  0  0  0  0  0  0  0  0  0  0  0
   23.9093   24.1377   38.0601 C   0  0  0  0  0  0  0  0  0  0  0  0
   23.4078   24.2261   36.6079 C   0  0  0  0  0  0  0  0  0  0  0  0
  1  2  1  0
  2  3  2  0
  2  4  1  0
  4  5  2  0
  5  6  1  0
  6  7  2  0
  7  8  1  0
  8  9  2  0
  9 10  1  0
 10 11  2  0
 11 12  1  0
 12 13  2  0
 13 14  1  0
  1 15  1  0
 15 16  1  0
 16 17  1  0
 17 18  1  0
 18 19  1  0
 19 20  2  0
 20 21  1  0
 20 22  1  0
 22 23  2  0
 23 24  1  0
 24 25  2  0
 18 26  1  0
 26 27  1  0
 13  4  1  0
 27 15  1  0
 12  7  1  0
 25 19  1  0
M  END
>  <AAScore>  (1) 
94.57677704033436

>  <RootName>  (1) 
./4ZLY/04_DeltaGEst/trajectory_01/rank_00/lead_0299

$$$$
