confid_14
     RDKit          3D

 25 27  0  0  0  0  0  0  0  0999 V2000
   24.5700   26.8800   35.5900 N   0  0  0  0  0  0  0  0  0  0  0  0
   25.5000   26.4000   34.6900 C   0  0  0  0  0  0  0  0  0  0  0  0
   25.1700   25.5200   33.9100 O   0  0  0  0  0  0  0  0  0  0  0  0
   26.8400   27.0200   34.7400 C   0  0  0  0  0  0  0  0  0  0  0  0
   27.3800   27.2800   35.9400 N   0  0  0  0  0  0  0  0  0  0  0  0
   28.6200   27.7400   36.0300 N   0  0  0  0  0  0  0  0  0  0  0  0
   29.3800   28.0000   34.9600 C   0  0  0  0  0  0  0  0  0  0  0  0
   30.6700   28.5000   35.1300 C   0  0  0  0  0  0  0  0  0  0  0  0
   31.5400   28.6100   34.0300 C   0  0  0  0  0  0  0  0  0  0  0  0
   31.0900   28.2200   32.7700 C   0  0  0  0  0  0  0  0  0  0  0  0
   29.8000   27.7000   32.6000 C   0  0  0  0  0  0  0  0  0  0  0  0
   28.9600   27.5500   33.7100 C   0  0  0  0  0  0  0  0  0  0  0  0
   27.6600   27.0300   33.5900 C   0  0  0  0  0  0  0  0  0  0  0  0
   27.1600   26.7400   32.3400 N   0  0  0  0  0  0  0  0  0  0  0  0
   33.1578   29.2670   34.2485 S   0  0  0  0  0  6  0  0  0  0  0  0
   34.0228   28.8719   33.0842 O   0  0  0  0  0  0  0  0  0  0  0  0
   33.7459   28.6897   35.5065 O   0  0  0  0  0  0  0  0  0  0  0  0
   33.0221   31.0601   34.3180 C   0  0  2  0  0  0  0  0  0  0  0  0
   34.2955   31.9008   34.4417 C   0  0  2  0  0  0  0  0  0  0  0  0
   35.6619   31.1927   34.4965 C   0  0  0  0  0  0  0  0  0  0  0  0
   36.7591   32.1550   34.9504 C   0  0  0  0  0  0  0  0  0  0  0  0
   36.8646   33.2133   34.0651 F   0  0  0  0  0  0  0  0  0  0  0  0
   36.4729   32.6420   36.2135 F   0  0  0  0  0  0  0  0  0  0  0  0
   37.9686   31.4858   34.9921 F   0  0  0  0  0  0  0  0  0  0  0  0
   33.3952   31.6910   35.6557 C   0  0  0  0  0  0  0  0  0  0  0  0
  1  2  1  0
  2  3  2  0
  2  4  1  0
  4  5  2  0
  5  6  1  0
  6  7  2  0
  7  8  1  0
  8  9  2  0
  9 10  1  0
 10 11  2  0
 11 12  1  0
 12 13  2  0
 13 14  1  0
  9 15  1  0
 15 16  2  0
 15 17  2  0
 18 15  1  1
 18 19  1  0
 19 20  1  1
 20 21  1  0
 21 22  1  0
 21 23  1  0
 21 24  1  0
 19 25  1  0
 13  4  1  0
 25 18  1  0
 12  7  1  0
M  END
>  <AAScore>  (1) 
-5.659537702952962

>  <RootName>  (1) 
./4ZLY/04_DeltaGEst/trajectory_05/rank_01/lead_0463

$$$$
