confid_3
     RDKit          3D

 27 30  0  0  0  0  0  0  0  0999 V2000
   25.3300   26.2600   34.7600 N   0  0  0  0  0  0  0  0  0  0  0  0
   26.1200   25.9200   33.6900 C   0  0  0  0  0  0  0  0  0  0  0  0
   25.6300   25.1100   32.9400 O   0  0  0  0  0  0  0  0  0  0  0  0
   27.5200   26.3800   33.4600 C   0  0  0  0  0  0  0  0  0  0  0  0
   28.1600   26.6300   34.6100 N   0  0  0  0  0  0  0  0  0  0  0  0
   29.4800   26.8500   34.5700 N   0  0  0  0  0  0  0  0  0  0  0  0
   30.1900   26.7800   33.4400 C   0  0  0  0  0  0  0  0  0  0  0  0
   31.5600   27.0500   33.5000 C   0  0  0  0  0  0  0  0  0  0  0  0
   32.2700   27.2400   32.3100 C   0  0  0  0  0  0  0  0  0  0  0  0
   31.6100   27.2500   31.0800 C   0  0  0  0  0  0  0  0  0  0  0  0
   30.2700   26.8700   31.0600 C   0  0  0  0  0  0  0  0  0  0  0  0
   29.5100   26.6900   32.2300 C   0  0  0  0  0  0  0  0  0  0  0  0
   28.1400   26.4100   32.2000 C   0  0  0  0  0  0  0  0  0  0  0  0
   27.4300   26.1300   31.0500 N   0  0  0  0  0  0  0  0  0  0  0  0
   27.5820   24.8142   30.4094 C   0  0  0  0  0  0  0  0  0  0  0  0
   26.6760   24.6851   29.1818 C   0  0  0  0  0  0  0  0  0  0  0  0
   26.7728   25.8974   28.3606 N   0  0  0  0  0  0  0  0  0  0  0  0
   26.9387   25.7921   26.9381 C   0  0  0  0  0  0  0  0  0  0  0  0
   28.1398   26.1970   26.3494 C   0  0  0  0  0  0  0  0  0  0  0  0
   28.3015   26.0818   24.9674 C   0  0  0  0  0  0  0  0  0  0  0  0
   29.5857   26.4821   24.3145 C   0  0  0  0  0  0  0  0  0  0  0  0
   27.2897   25.5668   24.2209 N   0  0  0  0  0  0  0  0  0  0  0  0
   26.1377   25.1852   24.7746 N   0  0  0  0  0  0  0  0  0  0  0  0
   25.9161   25.2884   26.1128 C   0  0  0  0  0  0  0  0  0  0  0  0
   24.5968   24.8452   26.6686 C   0  0  0  0  0  0  0  0  0  0  0  0
   26.7111   27.2301   28.9765 C   0  0  0  0  0  0  0  0  0  0  0  0
   26.5185   27.1369   30.4931 C   0  0  0  0  0  0  0  0  0  0  0  0
  1  2  1  0
  2  3  2  0
  2  4  1  0
  4  5  2  0
  5  6  1  0
  6  7  2  0
  7  8  1  0
  8  9  2  0
  9 10  1  0
 10 11  2  0
 11 12  1  0
 12 13  2  0
 13 14  1  0
 14 15  1  0
 15 16  1  0
 16 17  1  0
 17 18  1  0
 18 19  2  0
 19 20  1  0
 20 21  1  0
 20 22  2  0
 22 23  1  0
 23 24  2  0
 24 25  1  0
 17 26  1  0
 26 27  1  0
 13  4  1  0
 27 14  1  0
 12  7  1  0
 24 18  1  0
M  END
>  <AAScore>  (1) 
25.83547184697748

>  <RootName>  (1) 
./4ZLY/04_DeltaGEst/trajectory_03/rank_01/lead_0473

$$$$
