confid_9
     RDKit          3D

 26 28  0  0  0  0  0  0  0  0999 V2000
   24.6900   26.1200   35.5300 N   0  0  0  0  0  0  0  0  0  0  0  0
   25.6600   25.6700   34.6600 C   0  0  0  0  0  0  0  0  0  0  0  0
   25.2400   25.0100   33.7200 O   0  0  0  0  0  0  0  0  0  0  0  0
   27.0300   26.2200   34.8800 C   0  0  0  0  0  0  0  0  0  0  0  0
   27.3500   26.7300   36.0700 N   0  0  0  0  0  0  0  0  0  0  0  0
   28.5700   27.1800   36.3300 N   0  0  0  0  0  0  0  0  0  0  0  0
   29.5300   27.1100   35.3900 C   0  0  0  0  0  0  0  0  0  0  0  0
   30.8300   27.5700   35.6500 C   0  0  0  0  0  0  0  0  0  0  0  0
   31.8500   27.5400   34.6900 C   0  0  0  0  0  0  0  0  0  0  0  0
   31.5100   27.1200   33.4000 C   0  0  0  0  0  0  0  0  0  0  0  0
   30.2200   26.6300   33.1100 C   0  0  0  0  0  0  0  0  0  0  0  0
   29.2400   26.6600   34.1000 C   0  0  0  0  0  0  0  0  0  0  0  0
   27.9300   26.2600   33.8100 C   0  0  0  0  0  0  0  0  0  0  0  0
   27.5200   25.7100   32.6100 N   0  0  0  0  0  0  0  0  0  0  0  0
   23.3182   26.3667   35.1732 C   0  0  0  0  0  0  0  0  0  0  0  0
   22.9227   26.3767   33.8720 N   0  0  0  0  0  0  0  0  0  0  0  0
   21.6346   26.6304   33.5291 C   0  0  0  0  0  0  0  0  0  0  0  0
   20.6802   26.8966   34.5241 C   0  0  0  0  0  0  0  0  0  0  0  0
   21.1072   26.8914   35.8628 C   0  0  0  0  0  0  0  0  0  0  0  0
   22.4114   26.6308   36.1499 N   0  0  0  0  0  0  0  0  0  0  0  0
   20.1445   27.1728   36.9829 C   0  0  0  0  0  0  0  0  0  0  0  0
   20.7901   27.1119   38.2057 F   0  0  0  0  0  0  0  0  0  0  0  0
   19.6044   28.4365   36.8277 F   0  0  0  0  0  0  0  0  0  0  0  0
   19.1269   26.2362   36.9702 F   0  0  0  0  0  0  0  0  0  0  0  0
   19.3346   27.1648   34.2243 O   0  0  0  0  0  0  0  0  0  0  0  0
   18.7952   27.1969   32.9072 C   0  0  0  0  0  0  0  0  0  0  0  0
  1  2  1  0
  2  3  2  0
  2  4  1  0
  4  5  2  0
  5  6  1  0
  6  7  2  0
  7  8  1  0
  8  9  2  0
  9 10  1  0
 10 11  2  0
 11 12  1  0
 12 13  2  0
 13 14  1  0
  1 15  1  0
 15 16  2  0
 16 17  1  0
 17 18  2  0
 18 19  1  0
 19 20  2  0
 19 21  1  0
 21 22  1  0
 21 23  1  0
 21 24  1  0
 18 25  1  0
 25 26  1  0
 13  4  1  0
 20 15  1  0
 12  7  1  0
M  END
>  <AAScore>  (1) 
8184.95352433585

>  <RootName>  (1) 
./4ZLY/04_DeltaGEst/trajectory_02/rank_00/lead_0382

$$$$
