confid_4
     RDKit          3D

 27 30  0  0  0  0  0  0  0  0999 V2000
   25.3300   26.2600   34.7600 N   0  0  0  0  0  0  0  0  0  0  0  0
   26.1200   25.9200   33.6900 C   0  0  0  0  0  0  0  0  0  0  0  0
   25.6300   25.1100   32.9400 O   0  0  0  0  0  0  0  0  0  0  0  0
   27.5200   26.3800   33.4600 C   0  0  0  0  0  0  0  0  0  0  0  0
   28.1600   26.6300   34.6100 N   0  0  0  0  0  0  0  0  0  0  0  0
   29.4800   26.8500   34.5700 N   0  0  0  0  0  0  0  0  0  0  0  0
   30.1900   26.7800   33.4400 C   0  0  0  0  0  0  0  0  0  0  0  0
   31.5600   27.0500   33.5000 C   0  0  0  0  0  0  0  0  0  0  0  0
   32.2700   27.2400   32.3100 C   0  0  0  0  0  0  0  0  0  0  0  0
   31.6100   27.2500   31.0800 C   0  0  0  0  0  0  0  0  0  0  0  0
   30.2700   26.8700   31.0600 C   0  0  0  0  0  0  0  0  0  0  0  0
   29.5100   26.6900   32.2300 C   0  0  0  0  0  0  0  0  0  0  0  0
   28.1400   26.4100   32.2000 C   0  0  0  0  0  0  0  0  0  0  0  0
   27.4300   26.1300   31.0500 N   0  0  0  0  0  0  0  0  0  0  0  0
   24.2401   25.4811   35.2855 C   0  0  0  0  0  0  0  0  0  0  0  0
   24.0279   24.2026   34.8753 N   0  0  0  0  0  0  0  0  0  0  0  0
   23.0171   23.4512   35.3836 C   0  0  0  0  0  0  0  0  0  0  0  0
   22.8731   22.0224   34.9323 C   0  0  0  0  0  0  0  0  0  0  0  0
   21.5164   21.5001   35.1983 N   0  0  0  0  0  0  0  0  0  0  0  0
   21.1920   21.6793   36.6274 C   0  0  0  0  0  0  0  0  0  0  0  0
   21.0411   23.1690   36.9423 C   0  0  0  0  0  0  0  0  0  0  0  0
   22.1891   23.9825   36.3896 C   0  0  0  0  0  0  0  0  0  0  0  0
   22.4142   25.3155   36.7922 C   0  0  0  0  0  0  0  0  0  0  0  0
   21.5668   25.9817   37.8346 C   0  0  0  0  0  0  0  0  0  0  0  0
   23.4383   26.0185   36.2399 N   0  0  0  0  0  0  0  0  0  0  0  0
   21.4370   20.0749   34.8109 C   0  0  0  0  0  0  0  0  0  0  0  0
   19.9983   19.6799   34.4838 C   0  0  0  0  0  0  0  0  0  0  0  0
  1  2  1  0
  2  3  2  0
  2  4  1  0
  4  5  2  0
  5  6  1  0
  6  7  2  0
  7  8  1  0
  8  9  2  0
  9 10  1  0
 10 11  2  0
 11 12  1  0
 12 13  2  0
 13 14  1  0
  1 15  1  0
 15 16  2  0
 16 17  1  0
 17 18  1  0
 18 19  1  0
 19 20  1  0
 20 21  1  0
 21 22  1  0
 22 23  1  0
 23 24  1  0
 23 25  2  0
 19 26  1  0
 26 27  1  0
 13  4  1  0
 25 15  1  0
 12  7  1  0
 22 17  2  0
M  END
>  <AAScore>  (1) 
1271.382932222154

>  <RootName>  (1) 
./4ZLY/04_DeltaGEst/trajectory_03/rank_00/lead_0398

$$$$
