confid_13
     RDKit          3D

 28 31  0  0  0  0  0  0  0  0999 V2000
   25.3300   26.2600   34.7600 N   0  0  0  0  0  0  0  0  0  0  0  0
   26.1200   25.9200   33.6900 C   0  0  0  0  0  0  0  0  0  0  0  0
   25.6300   25.1100   32.9400 O   0  0  0  0  0  0  0  0  0  0  0  0
   27.5200   26.3800   33.4600 C   0  0  0  0  0  0  0  0  0  0  0  0
   28.1600   26.6300   34.6100 N   0  0  0  0  0  0  0  0  0  0  0  0
   29.4800   26.8500   34.5700 N   0  0  0  0  0  0  0  0  0  0  0  0
   30.1900   26.7800   33.4400 C   0  0  0  0  0  0  0  0  0  0  0  0
   31.5600   27.0500   33.5000 C   0  0  0  0  0  0  0  0  0  0  0  0
   32.2700   27.2400   32.3100 C   0  0  0  0  0  0  0  0  0  0  0  0
   31.6100   27.2500   31.0800 C   0  0  0  0  0  0  0  0  0  0  0  0
   30.2700   26.8700   31.0600 C   0  0  0  0  0  0  0  0  0  0  0  0
   29.5100   26.6900   32.2300 C   0  0  0  0  0  0  0  0  0  0  0  0
   28.1400   26.4100   32.2000 C   0  0  0  0  0  0  0  0  0  0  0  0
   27.4300   26.1300   31.0500 N   0  0  0  0  0  0  0  0  0  0  0  0
   24.1642   25.5269   35.1840 C   0  0  0  0  0  0  0  0  0  0  0  0
   23.9966   24.2111   34.9393 N   0  0  0  0  0  0  0  0  0  0  0  0
   22.8927   23.8955   35.6403 C   0  0  0  0  0  0  0  0  0  0  0  0
   22.3309   22.5140   35.7373 C   0  0  0  0  0  0  0  0  0  0  0  0
   21.6012   22.3684   37.0124 N   0  0  0  0  0  0  0  0  0  0  0  0
   20.9753   21.0395   37.0813 C   0  0  0  0  0  0  0  0  0  0  0  0
   20.5726   23.4217   37.1369 C   0  0  0  0  0  0  0  0  0  0  0  0
   21.2251   24.8142   37.2314 C   0  0  0  0  0  0  0  0  0  0  0  0
   22.3494   24.9402   36.2956 N   0  0  0  0  0  0  0  0  0  0  0  0
   23.1545   25.9991   36.0235 C   0  0  0  0  0  0  0  0  0  0  0  0
   23.1061   27.3866   36.6623 C   0  0  0  0  0  0  0  0  0  0  0  0
   23.9094   27.3795   37.9676 C   0  0  0  0  0  0  0  0  0  0  0  0
   21.6832   27.9021   36.9179 C   0  0  0  0  0  0  0  0  0  0  0  0
   23.6904   28.2977   35.7974 F   0  0  0  0  0  0  0  0  0  0  0  0
  1  2  1  0
  2  3  2  0
  2  4  1  0
  4  5  2  0
  5  6  1  0
  6  7  2  0
  7  8  1  0
  8  9  2  0
  9 10  1  0
 10 11  2  0
 11 12  1  0
 12 13  2  0
 13 14  1  0
  1 15  1  0
 15 16  1  0
 16 17  2  0
 17 18  1  0
 18 19  1  0
 19 20  1  0
 19 21  1  0
 21 22  1  0
 22 23  1  0
 23 24  1  0
 24 25  1  0
 25 26  1  0
 25 27  1  0
 25 28  1  0
 13  4  1  0
 24 15  2  0
 12  7  1  0
 23 17  1  0
M  END
>  <AAScore>  (1) 
5816.28766154648

>  <RootName>  (1) 
./4ZLY/04_DeltaGEst/trajectory_03/rank_00/lead_0100

$$$$
