confid_8
     RDKit          3D

 27 30  0  0  0  0  0  0  0  0999 V2000
   24.4800   26.1000   36.1300 N   0  0  0  0  0  0  0  0  0  0  0  0
   25.2500   26.2500   34.9900 C   0  0  0  0  0  0  0  0  0  0  0  0
   24.7400   25.7600   33.9900 O   0  0  0  0  0  0  0  0  0  0  0  0
   26.5900   26.8900   34.9600 C   0  0  0  0  0  0  0  0  0  0  0  0
   27.0600   27.2400   36.1600 N   0  0  0  0  0  0  0  0  0  0  0  0
   28.3000   27.7100   36.2400 N   0  0  0  0  0  0  0  0  0  0  0  0
   29.0500   27.9600   35.1500 C   0  0  0  0  0  0  0  0  0  0  0  0
   30.3400   28.4900   35.2600 C   0  0  0  0  0  0  0  0  0  0  0  0
   31.1100   28.8200   34.1400 C   0  0  0  0  0  0  0  0  0  0  0  0
   30.5200   28.6700   32.8800 C   0  0  0  0  0  0  0  0  0  0  0  0
   29.2900   28.0200   32.7700 C   0  0  0  0  0  0  0  0  0  0  0  0
   28.5200   27.7100   33.8900 C   0  0  0  0  0  0  0  0  0  0  0  0
   27.2700   27.0800   33.7600 C   0  0  0  0  0  0  0  0  0  0  0  0
   26.7500   26.8800   32.4900 N   0  0  0  0  0  0  0  0  0  0  0  0
   23.4840   25.0782   36.3345 C   0  0  0  0  0  0  0  0  0  0  0  0
   23.4000   24.0081   35.4977 N   0  0  0  0  0  0  0  0  0  0  0  0
   22.4830   23.0126   35.6513 C   0  0  0  0  0  0  0  0  0  0  0  0
   22.5497   21.8550   34.6768 C   0  0  0  0  0  0  0  0  0  0  0  0
   21.2293   21.3530   34.0368 C   0  0  0  0  0  0  0  0  0  0  0  0
   20.2585   22.3918   33.6265 N   0  0  0  0  0  0  0  0  0  0  0  0
   20.8049   23.2865   32.5939 C   0  0  0  0  0  0  0  0  0  0  0  0
   19.5756   23.1581   34.6968 C   0  0  0  0  0  0  0  0  0  0  0  0
   19.2668   22.3631   35.9927 C   0  0  0  0  0  0  0  0  0  0  0  0
   20.4736   22.0708   36.9207 C   0  0  0  0  0  0  0  0  0  0  0  0
   21.5935   23.0643   36.7530 C   0  0  0  0  0  0  0  0  0  0  0  0
   21.6665   24.1609   37.6255 C   0  0  0  0  0  0  0  0  0  0  0  0
   22.6151   25.1611   37.4254 C   0  0  0  0  0  0  0  0  0  0  0  0
  1  2  1  0
  2  3  2  0
  2  4  1  0
  4  5  2  0
  5  6  1  0
  6  7  2  0
  7  8  1  0
  8  9  2  0
  9 10  1  0
 10 11  2  0
 11 12  1  0
 12 13  2  0
 13 14  1  0
  1 15  1  0
 15 16  2  0
 16 17  1  0
 17 18  1  0
 18 19  1  0
 19 20  1  0
 20 21  1  0
 20 22  1  0
 22 23  1  0
 23 24  1  0
 24 25  1  0
 25 26  1  0
 26 27  2  0
 13  4  1  0
 27 15  1  0
 12  7  1  0
 25 17  2  0
M  END
>  <AAScore>  (1) 
189.58476402613292

>  <RootName>  (1) 
./4ZLY/04_DeltaGEst/trajectory_00/rank_01/lead_0327

$$$$
