confid_1
     RDKit          3D

 28 31  0  0  0  0  0  0  0  0999 V2000
   24.2000   26.2400   35.6900 N   0  0  0  0  0  0  0  0  0  0  0  0
   24.8500   26.2800   34.4800 C   0  0  0  0  0  0  0  0  0  0  0  0
   24.3100   25.7400   33.5400 O   0  0  0  0  0  0  0  0  0  0  0  0
   26.1800   26.9700   34.4700 C   0  0  0  0  0  0  0  0  0  0  0  0
   26.6500   27.6000   35.5500 N   0  0  0  0  0  0  0  0  0  0  0  0
   27.7900   28.2700   35.6200 N   0  0  0  0  0  0  0  0  0  0  0  0
   28.5400   28.3000   34.5100 C   0  0  0  0  0  0  0  0  0  0  0  0
   29.7700   28.9400   34.5600 C   0  0  0  0  0  0  0  0  0  0  0  0
   30.7000   28.8900   33.5000 C   0  0  0  0  0  0  0  0  0  0  0  0
   30.3700   28.1400   32.3700 C   0  0  0  0  0  0  0  0  0  0  0  0
   29.1200   27.5200   32.2800 C   0  0  0  0  0  0  0  0  0  0  0  0
   28.2100   27.6100   33.3300 C   0  0  0  0  0  0  0  0  0  0  0  0
   26.9700   26.9700   33.3100 C   0  0  0  0  0  0  0  0  0  0  0  0
   26.5300   26.2400   32.2200 N   0  0  0  0  0  0  0  0  0  0  0  0
   30.1356   29.6756   35.7400 N   0  0  0  0  0  0  0  0  0  0  0  0
   29.5162   30.9810   35.9866 C   0  0  0  0  0  0  0  0  0  0  0  0
   30.0606   31.6050   37.2791 C   0  0  0  0  0  0  0  0  0  0  0  0
   30.1634   30.6028   38.3597 N   0  0  0  0  0  0  0  0  0  0  0  0
   28.8333   30.1373   38.8084 C   0  0  0  0  0  0  0  0  0  0  0  0
   28.9115   29.6232   40.2134 C   0  0  0  0  0  0  0  0  0  0  0  0
   29.1900   30.3705   41.3430 C   0  0  0  0  0  0  0  0  0  0  0  0
   29.2135   29.4787   42.3973 C   0  0  0  0  0  0  0  0  0  0  0  0
   28.9540   28.2338   41.9488 N   0  0  0  0  0  0  0  0  0  0  0  0
   28.9671   27.0106   42.7469 C   0  0  0  0  0  0  0  0  0  0  0  0
   30.3681   26.4117   42.7727 C   0  0  0  0  0  0  0  0  0  0  0  0
   28.7803   28.3088   40.6154 C   0  0  0  0  0  0  0  0  0  0  0  0
   31.0777   29.4770   38.0235 C   0  0  0  0  0  0  0  0  0  0  0  0
   31.3139   29.2755   36.5124 C   0  0  0  0  0  0  0  0  0  0  0  0
  1  2  1  0
  2  3  2  0
  2  4  1  0
  4  5  2  0
  5  6  1  0
  6  7  2  0
  7  8  1  0
  8  9  2  0
  9 10  1  0
 10 11  2  0
 11 12  1  0
 12 13  2  0
 13 14  1  0
  8 15  1  0
 15 16  1  0
 16 17  1  0
 17 18  1  0
 18 19  1  0
 19 20  1  0
 20 21  1  0
 21 22  2  0
 22 23  1  0
 23 24  1  0
 24 25  1  0
 23 26  1  0
 18 27  1  0
 27 28  1  0
 13  4  1  0
 28 15  1  0
 12  7  1  0
 26 20  2  0
M  END
>  <AAScore>  (1) 
-8.58516026507242

>  <RootName>  (1) 
./4ZLY/04_DeltaGEst/trajectory_04/rank_01/lead_0073

$$$$
