confid_6
     RDKit          3D

 31 34  0  0  0  0  0  0  0  0999 V2000
   24.5500   26.3900   36.2500 N   0  0  0  0  0  0  0  0  0  0  0  0
   25.6000   26.1300   35.4000 C   0  0  0  0  0  0  0  0  0  0  0  0
   25.4300   25.4300   34.4200 O   0  0  0  0  0  0  0  0  0  0  0  0
   26.9800   26.6300   35.7100 C   0  0  0  0  0  0  0  0  0  0  0  0
   27.3200   26.8200   36.9800 N   0  0  0  0  0  0  0  0  0  0  0  0
   28.4700   27.4000   37.3100 N   0  0  0  0  0  0  0  0  0  0  0  0
   29.4000   27.6300   36.3700 C   0  0  0  0  0  0  0  0  0  0  0  0
   30.6600   28.0500   36.8000 C   0  0  0  0  0  0  0  0  0  0  0  0
   31.5700   28.3600   35.7800 C   0  0  0  0  0  0  0  0  0  0  0  0
   31.3700   28.1000   34.4300 C   0  0  0  0  0  0  0  0  0  0  0  0
   30.1200   27.5900   34.0500 C   0  0  0  0  0  0  0  0  0  0  0  0
   29.1500   27.3400   35.0300 C   0  0  0  0  0  0  0  0  0  0  0  0
   27.8800   26.8900   34.6600 C   0  0  0  0  0  0  0  0  0  0  0  0
   27.4800   26.6100   33.3700 N   0  0  0  0  0  0  0  0  0  0  0  0
   23.1737   26.0180   36.0138 C   0  0  0  0  0  0  0  0  0  0  0  0
   22.8650   25.2747   34.9896 N   0  0  0  0  0  0  0  0  0  0  0  0
   21.5356   24.8980   34.6250 C   0  0  0  0  0  0  0  0  0  0  0  0
   21.1176   23.6200   34.5542 C   0  0  0  0  0  0  0  0  0  0  0  0
   19.8193   23.3808   33.8120 C   0  0  0  0  0  0  0  0  0  0  0  0
   19.3952   21.9690   33.7902 N   0  0  0  0  0  0  0  0  0  0  0  0
   20.5263   21.0642   33.5178 C   0  0  0  0  0  0  0  0  0  0  0  0
   21.5930   21.1221   34.6180 C   0  0  0  0  0  0  0  0  0  0  0  0
   21.8669   22.4923   35.0949 N   0  0  0  0  0  0  0  0  0  0  0  0
   22.6797   22.5925   36.3236 C   0  0  0  0  0  0  0  0  0  0  0  0
   21.7973   22.7833   37.5664 C   0  0  0  0  0  0  0  0  0  0  0  0
   21.1413   24.1125   37.5607 N   0  0  0  0  0  0  0  0  0  0  0  0
   19.8566   24.0613   38.2936 C   0  0  0  0  0  0  0  0  0  0  0  0
   18.9504   25.2331   37.9077 C   0  0  0  0  0  0  0  0  0  0  0  0
   22.0341   25.1803   38.0817 C   0  0  0  0  0  0  0  0  0  0  0  0
   22.1527   26.3365   37.0820 C   0  0  0  0  0  0  0  0  0  0  0  0
   18.6379   21.5989   34.9984 C   0  0  0  0  0  0  0  0  0  0  0  0
  1  2  1  0
  2  3  2  0
  2  4  1  0
  4  5  2  0
  5  6  1  0
  6  7  2  0
  7  8  1  0
  8  9  2  0
  9 10  1  0
 10 11  2  0
 11 12  1  0
 12 13  2  0
 13 14  1  0
  1 15  1  0
 15 16  2  0
 16 17  1  0
 17 18  2  0
 18 19  1  0
 19 20  1  0
 20 21  1  0
 21 22  1  0
 22 23  1  0
 23 24  1  0
 24 25  1  0
 25 26  1  0
 26 27  1  0
 27 28  1  0
 26 29  1  0
 29 30  1  0
 20 31  1  0
 13  4  1  0
 30 15  1  0
 12  7  1  0
 23 18  1  0
M  END
>  <AAScore>  (1) 
9373.702777404496

>  <RootName>  (1) 
./4ZLY/04_DeltaGEst/trajectory_01/rank_00/lead_0225

$$$$
