confid_14
     RDKit          3D

 27 30  0  0  0  0  0  0  0  0999 V2000
   24.4800   26.1000   36.1300 N   0  0  0  0  0  0  0  0  0  0  0  0
   25.2500   26.2500   34.9900 C   0  0  0  0  0  0  0  0  0  0  0  0
   24.7400   25.7600   33.9900 O   0  0  0  0  0  0  0  0  0  0  0  0
   26.5900   26.8900   34.9600 C   0  0  0  0  0  0  0  0  0  0  0  0
   27.0600   27.2400   36.1600 N   0  0  0  0  0  0  0  0  0  0  0  0
   28.3000   27.7100   36.2400 N   0  0  0  0  0  0  0  0  0  0  0  0
   29.0500   27.9600   35.1500 C   0  0  0  0  0  0  0  0  0  0  0  0
   30.3400   28.4900   35.2600 C   0  0  0  0  0  0  0  0  0  0  0  0
   31.1100   28.8200   34.1400 C   0  0  0  0  0  0  0  0  0  0  0  0
   30.5200   28.6700   32.8800 C   0  0  0  0  0  0  0  0  0  0  0  0
   29.2900   28.0200   32.7700 C   0  0  0  0  0  0  0  0  0  0  0  0
   28.5200   27.7100   33.8900 C   0  0  0  0  0  0  0  0  0  0  0  0
   27.2700   27.0800   33.7600 C   0  0  0  0  0  0  0  0  0  0  0  0
   26.7500   26.8800   32.4900 N   0  0  0  0  0  0  0  0  0  0  0  0
   23.4813   25.0846   36.3369 C   0  0  0  0  0  0  0  0  0  0  0  0
   22.4098   25.3672   37.1210 N   0  0  0  0  0  0  0  0  0  0  0  0
   21.4398   24.4544   37.3781 C   0  0  0  0  0  0  0  0  0  0  0  0
   21.5205   23.1576   36.8471 C   0  0  0  0  0  0  0  0  0  0  0  0
   20.3573   22.2161   37.0612 C   0  0  0  0  0  0  0  0  0  0  0  0
   19.3112   22.3564   35.9442 C   0  0  0  0  0  0  0  0  0  0  0  0
   19.9346   22.3998   34.6043 N   0  0  0  0  0  0  0  0  0  0  0  0
   18.9475   22.8245   33.5983 C   0  0  0  0  0  0  0  0  0  0  0  0
   20.5680   21.1131   34.2277 C   0  0  0  0  0  0  0  0  0  0  0  0
   22.0828   21.3007   34.0781 C   0  0  0  0  0  0  0  0  0  0  0  0
   22.8185   21.4477   35.4194 C   0  0  0  0  0  0  0  0  0  0  0  0
   22.6384   22.8197   36.0419 C   0  0  0  0  0  0  0  0  0  0  0  0
   23.6163   23.7973   35.7947 C   0  0  0  0  0  0  0  0  0  0  0  0
  1  2  1  0
  2  3  2  0
  2  4  1  0
  4  5  2  0
  5  6  1  0
  6  7  2  0
  7  8  1  0
  8  9  2  0
  9 10  1  0
 10 11  2  0
 11 12  1  0
 12 13  2  0
 13 14  1  0
  1 15  1  0
 15 16  2  0
 16 17  1  0
 17 18  2  0
 18 19  1  0
 19 20  1  0
 20 21  1  0
 21 22  1  0
 21 23  1  0
 23 24  1  0
 24 25  1  0
 25 26  1  0
 26 27  2  0
 13  4  1  0
 27 15  1  0
 12  7  1  0
 26 18  1  0
M  END
>  <AAScore>  (1) 
288.818611156135

>  <RootName>  (1) 
./4ZLY/04_DeltaGEst/trajectory_00/rank_01/lead_0421

$$$$
