confid_8
     RDKit          3D

 27 30  0  0  0  0  0  0  0  0999 V2000
   24.6900   26.1200   35.5300 N   0  0  0  0  0  0  0  0  0  0  0  0
   25.6600   25.6700   34.6600 C   0  0  0  0  0  0  0  0  0  0  0  0
   25.2400   25.0100   33.7200 O   0  0  0  0  0  0  0  0  0  0  0  0
   27.0300   26.2200   34.8800 C   0  0  0  0  0  0  0  0  0  0  0  0
   27.3500   26.7300   36.0700 N   0  0  0  0  0  0  0  0  0  0  0  0
   28.5700   27.1800   36.3300 N   0  0  0  0  0  0  0  0  0  0  0  0
   29.5300   27.1100   35.3900 C   0  0  0  0  0  0  0  0  0  0  0  0
   30.8300   27.5700   35.6500 C   0  0  0  0  0  0  0  0  0  0  0  0
   31.8500   27.5400   34.6900 C   0  0  0  0  0  0  0  0  0  0  0  0
   31.5100   27.1200   33.4000 C   0  0  0  0  0  0  0  0  0  0  0  0
   30.2200   26.6300   33.1100 C   0  0  0  0  0  0  0  0  0  0  0  0
   29.2400   26.6600   34.1000 C   0  0  0  0  0  0  0  0  0  0  0  0
   27.9300   26.2600   33.8100 C   0  0  0  0  0  0  0  0  0  0  0  0
   27.5200   25.7100   32.6100 N   0  0  0  0  0  0  0  0  0  0  0  0
   23.3306   26.4135   35.1438 C   0  0  0  0  0  0  0  0  0  0  0  0
   23.0073   26.5599   33.8307 N   0  0  0  0  0  0  0  0  0  0  0  0
   21.7474   26.8644   33.4358 C   0  0  0  0  0  0  0  0  0  0  0  0
   20.7460   27.0324   34.3969 C   0  0  0  0  0  0  0  0  0  0  0  0
   19.3390   27.3811   33.9940 C   0  0  0  0  0  0  0  0  0  0  0  0
   18.3198   26.5065   34.7764 C   0  0  0  0  0  0  0  0  0  0  0  0
   18.2931   25.0909   34.1538 C   0  0  0  0  0  0  0  0  0  0  0  0
   18.6835   26.3997   36.3033 C   0  0  0  0  0  0  0  0  0  0  0  0
   19.9727   27.1401   36.7031 C   0  0  0  0  0  0  0  0  0  0  0  0
   21.0461   26.8937   35.7237 N   0  0  0  0  0  0  0  0  0  0  0  0
   22.3285   26.5986   36.1154 C   0  0  0  0  0  0  0  0  0  0  0  0
   22.6159   26.4895   37.3390 O   0  0  0  0  0  0  0  0  0  0  0  0
   16.9163   27.1283   34.6176 C   0  0  0  0  0  0  0  0  0  0  0  0
  1  2  1  0
  2  3  2  0
  2  4  1  0
  4  5  2  0
  5  6  1  0
  6  7  2  0
  7  8  1  0
  8  9  2  0
  9 10  1  0
 10 11  2  0
 11 12  1  0
 12 13  2  0
 13 14  1  0
  1 15  1  0
 15 16  2  0
 16 17  1  0
 17 18  2  0
 18 19  1  0
 19 20  1  0
 20 21  1  0
 20 22  1  0
 22 23  1  0
 23 24  1  0
 24 25  1  0
 25 26  2  0
 20 27  1  0
 13  4  1  0
 25 15  1  0
 12  7  1  0
 24 18  1  0
M  END
>  <AAScore>  (1) 
941.148706394274

>  <RootName>  (1) 
./4ZLY/04_DeltaGEst/trajectory_02/rank_00/lead_0241

$$$$
