confid_2
     RDKit          3D

 27 30  0  0  0  0  0  0  0  0999 V2000
   24.2000   26.2400   35.6900 N   0  0  0  0  0  0  0  0  0  0  0  0
   24.8500   26.2800   34.4800 C   0  0  0  0  0  0  0  0  0  0  0  0
   24.3100   25.7400   33.5400 O   0  0  0  0  0  0  0  0  0  0  0  0
   26.1800   26.9700   34.4700 C   0  0  0  0  0  0  0  0  0  0  0  0
   26.6500   27.6000   35.5500 N   0  0  0  0  0  0  0  0  0  0  0  0
   27.7900   28.2700   35.6200 N   0  0  0  0  0  0  0  0  0  0  0  0
   28.5400   28.3000   34.5100 C   0  0  0  0  0  0  0  0  0  0  0  0
   29.7700   28.9400   34.5600 C   0  0  0  0  0  0  0  0  0  0  0  0
   30.7000   28.8900   33.5000 C   0  0  0  0  0  0  0  0  0  0  0  0
   30.3700   28.1400   32.3700 C   0  0  0  0  0  0  0  0  0  0  0  0
   29.1200   27.5200   32.2800 C   0  0  0  0  0  0  0  0  0  0  0  0
   28.2100   27.6100   33.3300 C   0  0  0  0  0  0  0  0  0  0  0  0
   26.9700   26.9700   33.3100 C   0  0  0  0  0  0  0  0  0  0  0  0
   26.5300   26.2400   32.2200 N   0  0  0  0  0  0  0  0  0  0  0  0
   23.2409   25.2227   36.0474 C   0  0  0  0  0  0  0  0  0  0  0  0
   23.2511   24.0295   35.3929 N   0  0  0  0  0  0  0  0  0  0  0  0
   22.3889   23.0271   35.6906 C   0  0  0  0  0  0  0  0  0  0  0  0
   21.4567   23.1808   36.7210 C   0  0  0  0  0  0  0  0  0  0  0  0
   20.4571   22.0871   36.9882 C   0  0  0  0  0  0  0  0  0  0  0  0
   20.0302   22.0893   38.4226 C   0  0  0  0  0  0  0  0  0  0  0  0
   19.6448   21.0128   38.9547 O   0  0  0  0  0  0  0  0  0  0  0  0
   20.0226   23.3165   39.1723 N   0  0  0  0  0  0  0  0  0  0  0  0
   19.5427   23.3160   40.5565 C   0  0  0  0  0  0  0  0  0  0  0  0
   20.3672   24.5849   38.5146 C   0  0  0  0  0  0  0  0  0  0  0  0
   21.4179   24.3939   37.4383 C   0  0  0  0  0  0  0  0  0  0  0  0
   22.3067   25.4355   37.0839 C   0  0  0  0  0  0  0  0  0  0  0  0
   22.2134   27.0112   37.8805 Cl  0  0  0  0  0  0  0  0  0  0  0  0
  1  2  1  0
  2  3  2  0
  2  4  1  0
  4  5  2  0
  5  6  1  0
  6  7  2  0
  7  8  1  0
  8  9  2  0
  9 10  1  0
 10 11  2  0
 11 12  1  0
 12 13  2  0
 13 14  1  0
  1 15  1  0
 15 16  2  0
 16 17  1  0
 17 18  2  0
 18 19  1  0
 19 20  1  0
 20 21  2  0
 20 22  1  0
 22 23  1  0
 22 24  1  0
 24 25  1  0
 25 26  2  0
 26 27  1  0
 13  4  1  0
 26 15  1  0
 12  7  1  0
 25 18  1  0
M  END
>  <AAScore>  (1) 
635.4716754324191

>  <RootName>  (1) 
./4ZLY/04_DeltaGEst/trajectory_04/rank_00/lead_0406

$$$$
