confid_4
     RDKit          3D

 27 30  0  0  0  0  0  0  0  0999 V2000
   25.3300   26.2600   34.7600 N   0  0  0  0  0  0  0  0  0  0  0  0
   26.1200   25.9200   33.6900 C   0  0  0  0  0  0  0  0  0  0  0  0
   25.6300   25.1100   32.9400 O   0  0  0  0  0  0  0  0  0  0  0  0
   27.5200   26.3800   33.4600 C   0  0  0  0  0  0  0  0  0  0  0  0
   28.1600   26.6300   34.6100 N   0  0  0  0  0  0  0  0  0  0  0  0
   29.4800   26.8500   34.5700 N   0  0  0  0  0  0  0  0  0  0  0  0
   30.1900   26.7800   33.4400 C   0  0  0  0  0  0  0  0  0  0  0  0
   31.5600   27.0500   33.5000 C   0  0  0  0  0  0  0  0  0  0  0  0
   32.2700   27.2400   32.3100 C   0  0  0  0  0  0  0  0  0  0  0  0
   31.6100   27.2500   31.0800 C   0  0  0  0  0  0  0  0  0  0  0  0
   30.2700   26.8700   31.0600 C   0  0  0  0  0  0  0  0  0  0  0  0
   29.5100   26.6900   32.2300 C   0  0  0  0  0  0  0  0  0  0  0  0
   28.1400   26.4100   32.2000 C   0  0  0  0  0  0  0  0  0  0  0  0
   27.4300   26.1300   31.0500 N   0  0  0  0  0  0  0  0  0  0  0  0
   27.5651   24.8186   30.4144 C   0  0  0  0  0  0  0  0  0  0  0  0
   27.5127   24.9640   28.8966 C   0  0  0  0  0  0  0  0  0  0  0  0
   26.3258   25.7462   28.4904 N   0  0  0  0  0  0  0  0  0  0  0  0
   25.9460   25.5430   27.0694 C   0  0  0  0  0  0  0  0  0  0  0  0
   26.9177   26.1263   26.0802 C   0  0  0  0  0  0  0  0  0  0  0  0
   26.6731   27.1772   25.2233 C   0  0  0  0  0  0  0  0  0  0  0  0
   27.7477   27.3621   24.4313 N   0  0  0  0  0  0  0  0  0  0  0  0
   28.6171   26.4046   24.8189 C   0  0  0  0  0  0  0  0  0  0  0  0
   28.1362   25.6314   25.8100 N   0  0  0  0  0  0  0  0  0  0  0  0
   26.2429   27.1237   29.0765 C   0  0  0  0  0  0  0  0  0  0  0  0
   27.3585   28.0728   28.5679 C   0  0  0  0  0  0  0  0  0  0  0  0
   24.8770   27.7760   28.7515 C   0  0  0  0  0  0  0  0  0  0  0  0
   26.3277   27.0065   30.6247 C   0  0  0  0  0  0  0  0  0  0  0  0
  1  2  1  0
  2  3  2  0
  2  4  1  0
  4  5  2  0
  5  6  1  0
  6  7  2  0
  7  8  1  0
  8  9  2  0
  9 10  1  0
 10 11  2  0
 11 12  1  0
 12 13  2  0
 13 14  1  0
 14 15  1  0
 15 16  1  0
 16 17  1  0
 17 18  1  0
 18 19  1  0
 19 20  2  0
 20 21  1  0
 21 22  2  0
 22 23  1  0
 17 24  1  0
 24 25  1  0
 24 26  1  0
 24 27  1  0
 13  4  1  0
 27 14  1  0
 12  7  1  0
 23 19  1  0
M  END
>  <AAScore>  (1) 
63.60355741672459

>  <RootName>  (1) 
./4ZLY/04_DeltaGEst/trajectory_03/rank_01/lead_0140

$$$$
