confid_17
     RDKit          3D

 29 32  0  0  0  0  0  0  0  0999 V2000
   25.3300   26.2600   34.7600 N   0  0  0  0  0  0  0  0  0  0  0  0
   26.1200   25.9200   33.6900 C   0  0  0  0  0  0  0  0  0  0  0  0
   25.6300   25.1100   32.9400 O   0  0  0  0  0  0  0  0  0  0  0  0
   27.5200   26.3800   33.4600 C   0  0  0  0  0  0  0  0  0  0  0  0
   28.1600   26.6300   34.6100 N   0  0  0  0  0  0  0  0  0  0  0  0
   29.4800   26.8500   34.5700 N   0  0  0  0  0  0  0  0  0  0  0  0
   30.1900   26.7800   33.4400 C   0  0  0  0  0  0  0  0  0  0  0  0
   31.5600   27.0500   33.5000 C   0  0  0  0  0  0  0  0  0  0  0  0
   32.2700   27.2400   32.3100 C   0  0  0  0  0  0  0  0  0  0  0  0
   31.6100   27.2500   31.0800 C   0  0  0  0  0  0  0  0  0  0  0  0
   30.2700   26.8700   31.0600 C   0  0  0  0  0  0  0  0  0  0  0  0
   29.5100   26.6900   32.2300 C   0  0  0  0  0  0  0  0  0  0  0  0
   28.1400   26.4100   32.2000 C   0  0  0  0  0  0  0  0  0  0  0  0
   27.4300   26.1300   31.0500 N   0  0  0  0  0  0  0  0  0  0  0  0
   23.9186   25.9893   34.8686 C   0  0  0  0  0  0  0  0  0  0  0  0
   23.1452   25.5746   33.8460 N   0  0  0  0  0  0  0  0  0  0  0  0
   21.9024   25.5125   34.3718 C   0  0  0  0  0  0  0  0  0  0  0  0
   20.7439   24.9801   33.5768 C   0  0  0  0  0  0  0  0  0  0  0  0
   20.9674   23.5392   33.3164 N   0  0  0  0  0  0  0  0  0  0  0  0
   20.1886   22.6396   34.1972 C   0  0  0  0  0  0  0  0  0  0  0  0
   20.5796   22.8076   35.6716 C   0  0  0  0  0  0  0  0  0  0  0  0
   19.7231   23.7634   36.2683 O   0  0  0  0  0  0  0  0  0  0  0  0
   20.4022   24.5844   37.1965 C   0  0  0  0  0  0  0  0  0  0  0  0
   20.7012   25.9481   36.5697 C   0  0  0  0  0  0  0  0  0  0  0  0
   21.8658   25.8788   35.6791 N   0  0  0  0  0  0  0  0  0  0  0  0
   23.1473   26.1592   36.0019 C   0  0  0  0  0  0  0  0  0  0  0  0
   23.6227   26.6265   37.3473 C   0  0  0  0  0  0  0  0  0  0  0  0
   20.8407   23.1800   31.8857 C   0  0  0  0  0  0  0  0  0  0  0  0
   19.4100   23.3019   31.3429 C   0  0  0  0  0  0  0  0  0  0  0  0
  1  2  1  0
  2  3  2  0
  2  4  1  0
  4  5  2  0
  5  6  1  0
  6  7  2  0
  7  8  1  0
  8  9  2  0
  9 10  1  0
 10 11  2  0
 11 12  1  0
 12 13  2  0
 13 14  1  0
  1 15  1  0
 15 16  1  0
 16 17  2  0
 17 18  1  0
 18 19  1  0
 19 20  1  0
 20 21  1  0
 21 22  1  0
 22 23  1  0
 23 24  1  0
 24 25  1  0
 25 26  1  0
 26 27  1  0
 19 28  1  0
 28 29  1  0
 13  4  1  0
 26 15  2  0
 12  7  1  0
 25 17  1  0
M  END
>  <AAScore>  (1) 
9062.77148535402

>  <RootName>  (1) 
./4ZLY/04_DeltaGEst/trajectory_03/rank_00/lead_0166

$$$$
