confid_17
     RDKit          3D

 26 28  0  0  0  0  0  0  0  0999 V2000
   24.5700   26.8800   35.5900 N   0  0  0  0  0  0  0  0  0  0  0  0
   25.5000   26.4000   34.6900 C   0  0  0  0  0  0  0  0  0  0  0  0
   25.1700   25.5200   33.9100 O   0  0  0  0  0  0  0  0  0  0  0  0
   26.8400   27.0200   34.7400 C   0  0  0  0  0  0  0  0  0  0  0  0
   27.3800   27.2800   35.9400 N   0  0  0  0  0  0  0  0  0  0  0  0
   28.6200   27.7400   36.0300 N   0  0  0  0  0  0  0  0  0  0  0  0
   29.3800   28.0000   34.9600 C   0  0  0  0  0  0  0  0  0  0  0  0
   30.6700   28.5000   35.1300 C   0  0  0  0  0  0  0  0  0  0  0  0
   31.5400   28.6100   34.0300 C   0  0  0  0  0  0  0  0  0  0  0  0
   31.0900   28.2200   32.7700 C   0  0  0  0  0  0  0  0  0  0  0  0
   29.8000   27.7000   32.6000 C   0  0  0  0  0  0  0  0  0  0  0  0
   28.9600   27.5500   33.7100 C   0  0  0  0  0  0  0  0  0  0  0  0
   27.6600   27.0300   33.5900 C   0  0  0  0  0  0  0  0  0  0  0  0
   27.1600   26.7400   32.3400 N   0  0  0  0  0  0  0  0  0  0  0  0
   33.1606   29.2756   34.2358 S   0  0  0  0  0  6  0  0  0  0  0  0
   34.0822   28.6570   33.2219 O   0  0  0  0  0  0  0  0  0  0  0  0
   33.6672   28.9252   35.6071 O   0  0  0  0  0  0  0  0  0  0  0  0
   33.1887   31.0631   34.0402 C   0  0  2  0  0  0  0  0  0  0  0  0
   32.2422   31.7905   35.0053 C   0  0  0  0  0  0  0  0  0  0  0  0
   31.2888   32.5875   34.2107 N   0  0  0  0  0  0  0  0  0  0  0  0
   31.9502   32.7644   32.8991 C   0  0  2  0  0  0  0  0  0  0  0  0
   30.9944   33.1443   31.7361 C   0  0  0  0  0  0  0  0  0  0  0  0
   31.7312   33.6088   30.4625 C   0  0  0  0  0  0  0  0  0  0  0  0
   31.9522   32.4760   29.4596 C   0  0  0  0  0  0  0  0  0  0  0  0
   32.7665   31.5050   32.6475 C   0  0  0  0  0  0  0  0  0  0  0  0
   29.9837   31.8983   34.1334 C   0  0  0  0  0  0  0  0  0  0  0  0
  1  2  1  0
  2  3  2  0
  2  4  1  0
  4  5  2  0
  5  6  1  0
  6  7  2  0
  7  8  1  0
  8  9  2  0
  9 10  1  0
 10 11  2  0
 11 12  1  0
 12 13  2  0
 13 14  1  0
  9 15  1  0
 15 16  2  0
 15 17  2  0
 18 15  1  6
 18 19  1  0
 19 20  1  0
 20 21  1  0
 21 22  1  6
 22 23  1  0
 23 24  1  0
 21 25  1  0
 20 26  1  0
 13  4  1  0
 25 18  1  0
 12  7  1  0
M  END
>  <AAScore>  (1) 
279.9829186852542

>  <RootName>  (1) 
./4ZLY/04_DeltaGEst/trajectory_05/rank_01/lead_0290

$$$$
