confid_3
     RDKit          3D

 28 31  0  0  0  0  0  0  0  0999 V2000
   24.6900   26.1200   35.5300 N   0  0  0  0  0  0  0  0  0  0  0  0
   25.6600   25.6700   34.6600 C   0  0  0  0  0  0  0  0  0  0  0  0
   25.2400   25.0100   33.7200 O   0  0  0  0  0  0  0  0  0  0  0  0
   27.0300   26.2200   34.8800 C   0  0  0  0  0  0  0  0  0  0  0  0
   27.3500   26.7300   36.0700 N   0  0  0  0  0  0  0  0  0  0  0  0
   28.5700   27.1800   36.3300 N   0  0  0  0  0  0  0  0  0  0  0  0
   29.5300   27.1100   35.3900 C   0  0  0  0  0  0  0  0  0  0  0  0
   30.8300   27.5700   35.6500 C   0  0  0  0  0  0  0  0  0  0  0  0
   31.8500   27.5400   34.6900 C   0  0  0  0  0  0  0  0  0  0  0  0
   31.5100   27.1200   33.4000 C   0  0  0  0  0  0  0  0  0  0  0  0
   30.2200   26.6300   33.1100 C   0  0  0  0  0  0  0  0  0  0  0  0
   29.2400   26.6600   34.1000 C   0  0  0  0  0  0  0  0  0  0  0  0
   27.9300   26.2600   33.8100 C   0  0  0  0  0  0  0  0  0  0  0  0
   27.5200   25.7100   32.6100 N   0  0  0  0  0  0  0  0  0  0  0  0
   31.1796   28.0690   37.0030 C   0  0  0  0  0  0  0  0  0  0  0  0
   31.0763   27.2073   38.1061 C   0  0  0  0  0  0  0  0  0  0  0  0
   31.4191   27.6457   39.3914 C   0  0  0  0  0  0  0  0  0  0  0  0
   31.2339   26.7274   40.5761 C   0  0  0  0  0  0  0  0  0  0  0  0
   32.2583   27.0288   41.6758 C   0  0  0  0  0  0  0  0  0  0  0  0
   32.2454   28.4575   42.0149 N   0  0  0  0  0  0  0  0  0  0  0  0
   32.1874   29.4231   40.9500 C   0  0  0  0  0  0  0  0  0  0  0  0
   32.4100   30.6428   41.1847 O   0  0  0  0  0  0  0  0  0  0  0  0
   31.8470   28.9725   39.5832 C   0  0  0  0  0  0  0  0  0  0  0  0
   31.9488   29.8385   38.4831 C   0  0  0  0  0  0  0  0  0  0  0  0
   31.6184   29.3950   37.1880 C   0  0  0  0  0  0  0  0  0  0  0  0
   31.7009   30.2438   36.0709 O   0  0  0  0  0  0  0  0  0  0  0  0
   32.1290   31.6009   36.1146 C   0  0  0  0  0  0  0  0  0  0  0  0
   32.3443   28.9010   43.4068 C   0  0  0  0  0  0  0  0  0  0  0  0
  1  2  1  0
  2  3  2  0
  2  4  1  0
  4  5  2  0
  5  6  1  0
  6  7  2  0
  7  8  1  0
  8  9  2  0
  9 10  1  0
 10 11  2  0
 11 12  1  0
 12 13  2  0
 13 14  1  0
  8 15  1  0
 15 16  2  0
 16 17  1  0
 17 18  1  0
 18 19  1  0
 19 20  1  0
 20 21  1  0
 21 22  2  0
 21 23  1  0
 23 24  1  0
 24 25  2  0
 25 26  1  0
 26 27  1  0
 20 28  1  0
 13  4  1  0
 25 15  1  0
 12  7  1  0
 23 17  2  0
M  END
>  <AAScore>  (1) 
10.0301417100316

>  <RootName>  (1) 
./4ZLY/04_DeltaGEst/trajectory_02/rank_01/lead_0273

$$$$
