confid_10
     RDKit          3D

 27 29  0  0  0  0  0  0  0  0999 V2000
   24.5700   26.8800   35.5900 N   0  0  0  0  0  0  0  0  0  0  0  0
   25.5000   26.4000   34.6900 C   0  0  0  0  0  0  0  0  0  0  0  0
   25.1700   25.5200   33.9100 O   0  0  0  0  0  0  0  0  0  0  0  0
   26.8400   27.0200   34.7400 C   0  0  0  0  0  0  0  0  0  0  0  0
   27.3800   27.2800   35.9400 N   0  0  0  0  0  0  0  0  0  0  0  0
   28.6200   27.7400   36.0300 N   0  0  0  0  0  0  0  0  0  0  0  0
   29.3800   28.0000   34.9600 C   0  0  0  0  0  0  0  0  0  0  0  0
   30.6700   28.5000   35.1300 C   0  0  0  0  0  0  0  0  0  0  0  0
   31.5400   28.6100   34.0300 C   0  0  0  0  0  0  0  0  0  0  0  0
   31.0900   28.2200   32.7700 C   0  0  0  0  0  0  0  0  0  0  0  0
   29.8000   27.7000   32.6000 C   0  0  0  0  0  0  0  0  0  0  0  0
   28.9600   27.5500   33.7100 C   0  0  0  0  0  0  0  0  0  0  0  0
   27.6600   27.0300   33.5900 C   0  0  0  0  0  0  0  0  0  0  0  0
   27.1600   26.7400   32.3400 N   0  0  0  0  0  0  0  0  0  0  0  0
   33.1661   29.2615   34.2390 S   0  0  0  0  0  6  0  0  0  0  0  0
   34.0834   28.6433   33.2205 O   0  0  0  0  0  0  0  0  0  0  0  0
   33.6755   28.8924   35.6048 O   0  0  0  0  0  0  0  0  0  0  0  0
   33.1816   30.9998   34.0617 N   0  0  0  0  0  0  0  0  0  0  0  0
   32.2990   31.6208   35.0654 C   0  0  0  0  0  0  0  0  0  0  0  0
   32.4499   33.1751   35.1568 C   0  0  1  0  0  0  0  0  0  0  0  0
   33.7827   33.7593   34.5281 C   0  0  0  0  0  0  0  0  0  0  0  0
   34.9850   33.2771   35.3794 C   0  0  0  0  0  0  0  0  0  0  0  0
   33.7773   35.3071   34.6095 C   0  0  0  0  0  0  0  0  0  0  0  0
   34.0122   33.3298   33.0341 C   0  0  0  0  0  0  0  0  0  0  0  0
   32.8499   32.7624   32.4633 O   0  0  0  0  0  0  0  0  0  0  0  0
   32.7967   31.3647   32.6843 C   0  0  0  0  0  0  0  0  0  0  0  0
   31.1538   33.8746   34.6796 C   0  0  0  0  0  0  0  0  0  0  0  0
  1  2  1  0
  2  3  2  0
  2  4  1  0
  4  5  2  0
  5  6  1  0
  6  7  2  0
  7  8  1  0
  8  9  2  0
  9 10  1  0
 10 11  2  0
 11 12  1  0
 12 13  2  0
 13 14  1  0
  9 15  1  0
 15 16  2  0
 15 17  2  0
 15 18  1  0
 18 19  1  0
 19 20  1  0
 20 21  1  0
 21 22  1  0
 21 23  1  0
 21 24  1  0
 24 25  1  0
 25 26  1  0
 20 27  1  6
 13  4  1  0
 26 18  1  0
 12  7  1  0
M  END
>  <AAScore>  (1) 
-6.305588091607893

>  <RootName>  (1) 
./4ZLY/04_DeltaGEst/trajectory_05/rank_01/lead_0274

$$$$
