confid_14
     RDKit          3D

 32 36  0  0  0  0  0  0  0  0999 V2000
   24.2000   26.2400   35.6900 N   0  0  0  0  0  0  0  0  0  0  0  0
   24.8500   26.2800   34.4800 C   0  0  0  0  0  0  0  0  0  0  0  0
   24.3100   25.7400   33.5400 O   0  0  0  0  0  0  0  0  0  0  0  0
   26.1800   26.9700   34.4700 C   0  0  0  0  0  0  0  0  0  0  0  0
   26.6500   27.6000   35.5500 N   0  0  0  0  0  0  0  0  0  0  0  0
   27.7900   28.2700   35.6200 N   0  0  0  0  0  0  0  0  0  0  0  0
   28.5400   28.3000   34.5100 C   0  0  0  0  0  0  0  0  0  0  0  0
   29.7700   28.9400   34.5600 C   0  0  0  0  0  0  0  0  0  0  0  0
   30.7000   28.8900   33.5000 C   0  0  0  0  0  0  0  0  0  0  0  0
   30.3700   28.1400   32.3700 C   0  0  0  0  0  0  0  0  0  0  0  0
   29.1200   27.5200   32.2800 C   0  0  0  0  0  0  0  0  0  0  0  0
   28.2100   27.6100   33.3300 C   0  0  0  0  0  0  0  0  0  0  0  0
   26.9700   26.9700   33.3100 C   0  0  0  0  0  0  0  0  0  0  0  0
   26.5300   26.2400   32.2200 N   0  0  0  0  0  0  0  0  0  0  0  0
   23.2157   25.2405   36.0168 C   0  0  0  0  0  0  0  0  0  0  0  0
   23.2976   24.0636   35.4609 N   0  0  0  0  0  0  0  0  0  0  0  0
   22.4109   22.9521   35.6388 C   0  0  0  0  0  0  0  0  0  0  0  0
   21.3027   22.8238   34.8962 C   0  0  0  0  0  0  0  0  0  0  0  0
   20.7093   21.4638   34.6468 C   0  0  0  0  0  0  0  0  0  0  0  0
   19.7678   21.5081   33.5026 N   0  0  0  0  0  0  0  0  0  0  0  0
   20.4100   22.1847   32.3471 C   0  0  0  0  0  0  0  0  0  0  0  0
   20.6947   23.6696   32.6578 C   0  0  0  0  0  0  0  0  0  0  0  0
   20.8024   23.9057   34.1016 N   0  0  0  0  0  0  0  0  0  0  0  0
   19.9804   24.9437   34.7379 C   0  0  0  0  0  0  0  0  0  0  0  0
   20.6966   26.3017   34.7109 C   0  0  0  0  0  0  0  0  0  0  0  0
   21.0659   26.9489   36.3887 S   0  0  0  0  0  0  0  0  0  0  0  0
   22.1295   25.5868   37.0009 C   0  0  0  0  0  0  0  0  0  0  0  0
   19.3547   20.1316   33.1460 C   0  0  0  0  0  0  0  0  0  0  0  0
   18.0477   20.1334   32.3310 C   0  0  0  0  0  0  0  0  0  0  0  0
   17.4265   18.7612   32.1749 C   0  0  0  0  0  0  0  0  0  0  0  0
   16.2920   19.1148   32.9328 O   0  0  0  0  0  0  0  0  0  0  0  0
   16.7954   20.4170   33.1330 C   0  0  0  0  0  0  0  0  0  0  0  0
  1  2  1  0
  2  3  2  0
  2  4  1  0
  4  5  2  0
  5  6  1  0
  6  7  2  0
  7  8  1  0
  8  9  2  0
  9 10  1  0
 10 11  2  0
 11 12  1  0
 12 13  2  0
 13 14  1  0
  1 15  1  0
 15 16  2  0
 16 17  1  0
 17 18  2  0
 18 19  1  0
 19 20  1  0
 20 21  1  0
 21 22  1  0
 22 23  1  0
 23 24  1  0
 24 25  1  0
 25 26  1  0
 26 27  1  0
 20 28  1  0
 28 29  1  0
 29 30  1  0
 30 31  1  0
 31 32  1  0
 13  4  1  0
 27 15  1  0
 32 29  1  0
 12  7  1  0
 23 18  1  0
M  END
>  <AAScore>  (1) 
4164.4972501648

>  <RootName>  (1) 
./4ZLY/04_DeltaGEst/trajectory_04/rank_00/lead_0246

$$$$
