confid_8
     RDKit          3D

 26 28  0  0  0  0  0  0  0  0999 V2000
   24.5700   26.8800   35.5900 N   0  0  0  0  0  0  0  0  0  0  0  0
   25.5000   26.4000   34.6900 C   0  0  0  0  0  0  0  0  0  0  0  0
   25.1700   25.5200   33.9100 O   0  0  0  0  0  0  0  0  0  0  0  0
   26.8400   27.0200   34.7400 C   0  0  0  0  0  0  0  0  0  0  0  0
   27.3800   27.2800   35.9400 N   0  0  0  0  0  0  0  0  0  0  0  0
   28.6200   27.7400   36.0300 N   0  0  0  0  0  0  0  0  0  0  0  0
   29.3800   28.0000   34.9600 C   0  0  0  0  0  0  0  0  0  0  0  0
   30.6700   28.5000   35.1300 C   0  0  0  0  0  0  0  0  0  0  0  0
   31.5400   28.6100   34.0300 C   0  0  0  0  0  0  0  0  0  0  0  0
   31.0900   28.2200   32.7700 C   0  0  0  0  0  0  0  0  0  0  0  0
   29.8000   27.7000   32.6000 C   0  0  0  0  0  0  0  0  0  0  0  0
   28.9600   27.5500   33.7100 C   0  0  0  0  0  0  0  0  0  0  0  0
   27.6600   27.0300   33.5900 C   0  0  0  0  0  0  0  0  0  0  0  0
   27.1600   26.7400   32.3400 N   0  0  0  0  0  0  0  0  0  0  0  0
   33.1191   29.3711   34.2208 S   0  0  0  0  0  6  0  0  0  0  0  0
   33.7413   28.9186   35.5118 O   0  0  0  0  0  0  0  0  0  0  0  0
   34.0175   28.9626   33.0868 O   0  0  0  0  0  0  0  0  0  0  0  0
   32.9505   31.1525   34.2283 C   0  0  0  0  0  0  0  0  0  0  0  0
   31.8186   31.5698   33.3442 C   0  0  0  0  0  0  0  0  0  0  0  0
   30.5055   31.7620   33.7615 C   0  0  0  0  0  0  0  0  0  0  0  0
   29.6101   31.9128   32.6987 C   0  0  0  0  0  0  0  0  0  0  0  0
   30.2113   31.8415   31.4473 C   0  0  0  0  0  0  0  0  0  0  0  0
   29.4968   31.7994   30.1333 C   0  0  0  0  0  0  0  0  0  0  0  0
   29.0431   30.3776   29.8181 C   0  0  0  0  0  0  0  0  0  0  0  0
   31.8569   31.5604   31.6601 S   0  0  0  0  0  0  0  0  0  0  0  0
   28.2731   32.0491   32.8772 F   0  0  0  0  0  0  0  0  0  0  0  0
  1  2  1  0
  2  3  2  0
  2  4  1  0
  4  5  2  0
  5  6  1  0
  6  7  2  0
  7  8  1  0
  8  9  2  0
  9 10  1  0
 10 11  2  0
 11 12  1  0
 12 13  2  0
 13 14  1  0
  9 15  1  0
 15 16  2  0
 15 17  2  0
 15 18  1  0
 18 19  1  0
 19 20  2  0
 20 21  1  0
 21 22  2  0
 22 23  1  0
 23 24  1  0
 22 25  1  0
 21 26  1  0
 13  4  1  0
 25 19  1  0
 12  7  1  0
M  END
>  <AAScore>  (1) 
11.13052609689012

>  <RootName>  (1) 
./4ZLY/04_DeltaGEst/trajectory_05/rank_01/lead_0289

$$$$
