confid_0
     RDKit          3D

 27 30  0  0  0  0  0  0  0  0999 V2000
   24.4800   26.1000   36.1300 N   0  0  0  0  0  0  0  0  0  0  0  0
   25.2500   26.2500   34.9900 C   0  0  0  0  0  0  0  0  0  0  0  0
   24.7400   25.7600   33.9900 O   0  0  0  0  0  0  0  0  0  0  0  0
   26.5900   26.8900   34.9600 C   0  0  0  0  0  0  0  0  0  0  0  0
   27.0600   27.2400   36.1600 N   0  0  0  0  0  0  0  0  0  0  0  0
   28.3000   27.7100   36.2400 N   0  0  0  0  0  0  0  0  0  0  0  0
   29.0500   27.9600   35.1500 C   0  0  0  0  0  0  0  0  0  0  0  0
   30.3400   28.4900   35.2600 C   0  0  0  0  0  0  0  0  0  0  0  0
   31.1100   28.8200   34.1400 C   0  0  0  0  0  0  0  0  0  0  0  0
   30.5200   28.6700   32.8800 C   0  0  0  0  0  0  0  0  0  0  0  0
   29.2900   28.0200   32.7700 C   0  0  0  0  0  0  0  0  0  0  0  0
   28.5200   27.7100   33.8900 C   0  0  0  0  0  0  0  0  0  0  0  0
   27.2700   27.0800   33.7600 C   0  0  0  0  0  0  0  0  0  0  0  0
   26.7500   26.8800   32.4900 N   0  0  0  0  0  0  0  0  0  0  0  0
   23.5407   25.0359   36.3682 C   0  0  0  0  0  0  0  0  0  0  0  0
   22.4839   25.2626   37.2111 N   0  0  0  0  0  0  0  0  0  0  0  0
   21.5679   24.2976   37.5110 C   0  0  0  0  0  0  0  0  0  0  0  0
   21.7263   23.0400   36.9424 C   0  0  0  0  0  0  0  0  0  0  0  0
   20.9542   21.8320   37.0789 C   0  0  0  0  0  0  0  0  0  0  0  0
   19.9310   21.6776   37.7963 O   0  0  0  0  0  0  0  0  0  0  0  0
   21.5461   20.8092   36.2883 N   0  0  0  0  0  0  0  0  0  0  0  0
   22.7611   21.3303   35.6563 C   0  0  0  0  0  0  0  0  0  0  0  0
   22.7844   22.7650   36.1076 C   0  0  0  0  0  0  0  0  0  0  0  0
   23.7224   23.7499   35.8062 C   0  0  0  0  0  0  0  0  0  0  0  0
   21.2134   19.4929   36.3529 O   0  0  0  0  0  0  0  0  0  0  0  0
   20.3161   19.2537   35.2964 C   0  0  0  0  0  0  0  0  0  0  0  0
   19.8878   17.7949   35.3214 C   0  0  0  0  0  0  0  0  0  0  0  0
  1  2  1  0
  2  3  2  0
  2  4  1  0
  4  5  2  0
  5  6  1  0
  6  7  2  0
  7  8  1  0
  8  9  2  0
  9 10  1  0
 10 11  2  0
 11 12  1  0
 12 13  2  0
 13 14  1  0
  1 15  1  0
 15 16  2  0
 16 17  1  0
 17 18  2  0
 18 19  1  0
 19 20  2  0
 19 21  1  0
 21 22  1  0
 22 23  1  0
 23 24  2  0
 21 25  1  0
 25 26  1  0
 26 27  1  0
 13  4  1  0
 24 15  1  0
 12  7  1  0
 23 18  1  0
M  END
>  <AAScore>  (1) 
1855.9815326045136

>  <RootName>  (1) 
./4ZLY/04_DeltaGEst/trajectory_00/rank_00/lead_0173

$$$$
