confid_9
     RDKit          3D

 27 30  0  0  0  0  0  0  0  0999 V2000
   24.6900   26.1200   35.5300 N   0  0  0  0  0  0  0  0  0  0  0  0
   25.6600   25.6700   34.6600 C   0  0  0  0  0  0  0  0  0  0  0  0
   25.2400   25.0100   33.7200 O   0  0  0  0  0  0  0  0  0  0  0  0
   27.0300   26.2200   34.8800 C   0  0  0  0  0  0  0  0  0  0  0  0
   27.3500   26.7300   36.0700 N   0  0  0  0  0  0  0  0  0  0  0  0
   28.5700   27.1800   36.3300 N   0  0  0  0  0  0  0  0  0  0  0  0
   29.5300   27.1100   35.3900 C   0  0  0  0  0  0  0  0  0  0  0  0
   30.8300   27.5700   35.6500 C   0  0  0  0  0  0  0  0  0  0  0  0
   31.8500   27.5400   34.6900 C   0  0  0  0  0  0  0  0  0  0  0  0
   31.5100   27.1200   33.4000 C   0  0  0  0  0  0  0  0  0  0  0  0
   30.2200   26.6300   33.1100 C   0  0  0  0  0  0  0  0  0  0  0  0
   29.2400   26.6600   34.1000 C   0  0  0  0  0  0  0  0  0  0  0  0
   27.9300   26.2600   33.8100 C   0  0  0  0  0  0  0  0  0  0  0  0
   27.5200   25.7100   32.6100 N   0  0  0  0  0  0  0  0  0  0  0  0
   31.1530   28.0589   36.9596 N   0  0  0  0  0  0  0  0  0  0  0  0
   30.8318   29.4621   37.2766 C   0  0  0  0  0  0  0  0  0  0  0  0
   31.1252   29.8441   38.7397 C   0  0  0  0  0  0  0  0  0  0  0  0
   30.2920   29.0657   39.7850 C   0  0  0  0  0  0  0  0  0  0  0  0
   29.6389   27.8611   39.2150 N   0  0  0  0  0  0  0  0  0  0  0  0
   28.4287   27.4124   39.9581 C   0  0  0  0  0  0  0  0  0  0  0  0
   28.6346   27.3262   41.4910 C   0  0  0  0  0  0  0  0  0  0  0  0
   27.4014   26.7189   42.1892 C   0  0  0  0  0  0  0  0  0  0  0  0
   26.0656   27.0746   41.5026 C   0  0  0  0  0  0  0  0  0  0  0  0
   26.1564   28.3839   40.7120 C   0  0  0  0  0  0  0  0  0  0  0  0
   27.2028   28.2898   39.5856 C   0  0  0  0  0  0  0  0  0  0  0  0
   30.5977   26.7536   38.9958 C   0  0  0  0  0  0  0  0  0  0  0  0
   31.6740   27.1160   37.9602 C   0  0  0  0  0  0  0  0  0  0  0  0
  1  2  1  0
  2  3  2  0
  2  4  1  0
  4  5  2  0
  5  6  1  0
  6  7  2  0
  7  8  1  0
  8  9  2  0
  9 10  1  0
 10 11  2  0
 11 12  1  0
 12 13  2  0
 13 14  1  0
  8 15  1  0
 15 16  1  0
 16 17  1  0
 17 18  1  0
 18 19  1  0
 19 20  1  0
 20 21  1  0
 21 22  1  0
 22 23  1  0
 23 24  1  0
 24 25  1  0
 19 26  1  0
 26 27  1  0
 13  4  1  0
 27 15  1  0
 12  7  1  0
 25 20  1  0
M  END
>  <AAScore>  (1) 
0.4984113837983629

>  <RootName>  (1) 
./4ZLY/04_DeltaGEst/trajectory_02/rank_01/lead_0341

$$$$
