confid_18
     RDKit          3D

 27 30  0  0  0  0  0  0  0  0999 V2000
   24.5700   26.8800   35.5900 N   0  0  0  0  0  0  0  0  0  0  0  0
   25.5000   26.4000   34.6900 C   0  0  0  0  0  0  0  0  0  0  0  0
   25.1700   25.5200   33.9100 O   0  0  0  0  0  0  0  0  0  0  0  0
   26.8400   27.0200   34.7400 C   0  0  0  0  0  0  0  0  0  0  0  0
   27.3800   27.2800   35.9400 N   0  0  0  0  0  0  0  0  0  0  0  0
   28.6200   27.7400   36.0300 N   0  0  0  0  0  0  0  0  0  0  0  0
   29.3800   28.0000   34.9600 C   0  0  0  0  0  0  0  0  0  0  0  0
   30.6700   28.5000   35.1300 C   0  0  0  0  0  0  0  0  0  0  0  0
   31.5400   28.6100   34.0300 C   0  0  0  0  0  0  0  0  0  0  0  0
   31.0900   28.2200   32.7700 C   0  0  0  0  0  0  0  0  0  0  0  0
   29.8000   27.7000   32.6000 C   0  0  0  0  0  0  0  0  0  0  0  0
   28.9600   27.5500   33.7100 C   0  0  0  0  0  0  0  0  0  0  0  0
   27.6600   27.0300   33.5900 C   0  0  0  0  0  0  0  0  0  0  0  0
   27.1600   26.7400   32.3400 N   0  0  0  0  0  0  0  0  0  0  0  0
   23.1468   26.7349   35.4242 C   0  0  0  0  0  0  0  0  0  0  0  0
   22.6485   25.7532   34.7092 N   0  0  0  0  0  0  0  0  0  0  0  0
   21.2493   25.6531   34.3642 C   0  0  0  0  0  0  0  0  0  0  0  0
   20.2902   25.4837   35.3032 C   0  0  0  0  0  0  0  0  0  0  0  0
   20.6775   25.0365   36.7030 C   0  0  0  0  0  0  0  0  0  0  0  0
   21.6267   24.0287   36.6347 F   0  0  0  0  0  0  0  0  0  0  0  0
   19.5617   24.5122   37.3381 F   0  0  0  0  0  0  0  0  0  0  0  0
   21.2344   26.2224   37.5285 C   0  0  0  0  0  0  0  0  0  0  0  0
   21.2730   27.5029   36.7094 C   0  0  0  0  0  0  0  0  0  0  0  0
   22.2757   27.7658   35.9219 N   0  0  0  0  0  0  0  0  0  0  0  0
   20.0652   28.1571   36.4468 O   0  0  0  0  0  0  0  0  0  0  0  0
   18.8498   27.4146   36.2261 C   0  0  0  0  0  0  0  0  0  0  0  0
   18.9947   26.2787   35.1614 C   0  0  0  0  0  0  0  0  0  0  0  0
  1  2  1  0
  2  3  2  0
  2  4  1  0
  4  5  2  0
  5  6  1  0
  6  7  2  0
  7  8  1  0
  8  9  2  0
  9 10  1  0
 10 11  2  0
 11 12  1  0
 12 13  2  0
 13 14  1  0
  1 15  1  0
 15 16  2  0
 16 17  1  0
 17 18  2  0
 18 19  1  0
 19 20  1  0
 19 21  1  0
 19 22  1  0
 22 23  1  0
 23 24  2  0
 23 25  1  0
 25 26  1  0
 26 27  1  0
 13  4  1  0
 24 15  1  0
 12  7  1  0
 27 18  1  0
M  END
>  <AAScore>  (1) 
1347.1656377890129

>  <RootName>  (1) 
./4ZLY/04_DeltaGEst/trajectory_05/rank_00/lead_0059

$$$$
