confid_6
     RDKit          3D

 29 33  0  0  0  0  0  0  0  0999 V2000
   24.5700   26.8800   35.5900 N   0  0  0  0  0  0  0  0  0  0  0  0
   25.5000   26.4000   34.6900 C   0  0  0  0  0  0  0  0  0  0  0  0
   25.1700   25.5200   33.9100 O   0  0  0  0  0  0  0  0  0  0  0  0
   26.8400   27.0200   34.7400 C   0  0  0  0  0  0  0  0  0  0  0  0
   27.3800   27.2800   35.9400 N   0  0  0  0  0  0  0  0  0  0  0  0
   28.6200   27.7400   36.0300 N   0  0  0  0  0  0  0  0  0  0  0  0
   29.3800   28.0000   34.9600 C   0  0  0  0  0  0  0  0  0  0  0  0
   30.6700   28.5000   35.1300 C   0  0  0  0  0  0  0  0  0  0  0  0
   31.5400   28.6100   34.0300 C   0  0  0  0  0  0  0  0  0  0  0  0
   31.0900   28.2200   32.7700 C   0  0  0  0  0  0  0  0  0  0  0  0
   29.8000   27.7000   32.6000 C   0  0  0  0  0  0  0  0  0  0  0  0
   28.9600   27.5500   33.7100 C   0  0  0  0  0  0  0  0  0  0  0  0
   27.6600   27.0300   33.5900 C   0  0  0  0  0  0  0  0  0  0  0  0
   27.1600   26.7400   32.3400 N   0  0  0  0  0  0  0  0  0  0  0  0
   23.1893   26.4789   35.6410 C   0  0  0  0  0  0  0  0  0  0  0  0
   22.6270   25.9829   34.5763 N   0  0  0  0  0  0  0  0  0  0  0  0
   21.2787   25.5332   34.4945 C   0  0  0  0  0  0  0  0  0  0  0  0
   20.9891   24.3535   35.0124 C   0  0  0  0  0  0  0  0  0  0  0  0
   21.7655   23.3170   35.7975 C   0  0  1  0  0  0  0  0  0  0  0  0
   22.3434   23.8773   37.1194 C   0  0  0  0  0  0  0  0  0  0  0  0
   21.4626   24.8804   37.7463 N   0  0  0  0  0  0  0  0  0  0  0  0
   20.3749   24.3958   38.6169 C   0  0  0  0  0  0  0  0  0  0  0  0
   20.2352   25.2076   39.7642 O   0  0  0  0  0  0  0  0  0  0  0  0
   19.8512   26.5054   39.3682 C   0  0  0  0  0  0  0  0  0  0  0  0
   21.0112   27.2060   38.6704 C   0  0  0  0  0  0  0  0  0  0  0  0
   21.6306   26.3227   37.6251 C   0  0  0  0  0  0  0  0  0  0  0  0
   22.4097   26.9241   36.7636 N   0  0  0  0  0  0  0  0  0  0  0  0
   20.5907   22.3878   35.9201 C   0  0  0  0  0  0  0  0  0  0  0  0
   19.8161   23.4013   35.1330 C   0  0  0  0  0  0  0  0  0  0  0  0
  1  2  1  0
  2  3  2  0
  2  4  1  0
  4  5  2  0
  5  6  1  0
  6  7  2  0
  7  8  1  0
  8  9  2  0
  9 10  1  0
 10 11  2  0
 11 12  1  0
 12 13  2  0
 13 14  1  0
  1 15  1  0
 15 16  2  0
 16 17  1  0
 17 18  2  0
 18 19  1  0
 19 20  1  1
 20 21  1  0
 21 22  1  0
 22 23  1  0
 23 24  1  0
 24 25  1  0
 25 26  1  0
 26 27  2  0
 19 28  1  0
 28 29  1  0
 13  4  1  0
 27 15  1  0
 12  7  1  0
 29 18  1  0
 26 21  1  0
M  END
>  <AAScore>  (1) 
10924.614858479985

>  <RootName>  (1) 
./4ZLY/04_DeltaGEst/trajectory_05/rank_00/lead_0261

$$$$
