confid_4
     RDKit          3D

 28 31  0  0  0  0  0  0  0  0999 V2000
   24.4800   26.1000   36.1300 N   0  0  0  0  0  0  0  0  0  0  0  0
   25.2500   26.2500   34.9900 C   0  0  0  0  0  0  0  0  0  0  0  0
   24.7400   25.7600   33.9900 O   0  0  0  0  0  0  0  0  0  0  0  0
   26.5900   26.8900   34.9600 C   0  0  0  0  0  0  0  0  0  0  0  0
   27.0600   27.2400   36.1600 N   0  0  0  0  0  0  0  0  0  0  0  0
   28.3000   27.7100   36.2400 N   0  0  0  0  0  0  0  0  0  0  0  0
   29.0500   27.9600   35.1500 C   0  0  0  0  0  0  0  0  0  0  0  0
   30.3400   28.4900   35.2600 C   0  0  0  0  0  0  0  0  0  0  0  0
   31.1100   28.8200   34.1400 C   0  0  0  0  0  0  0  0  0  0  0  0
   30.5200   28.6700   32.8800 C   0  0  0  0  0  0  0  0  0  0  0  0
   29.2900   28.0200   32.7700 C   0  0  0  0  0  0  0  0  0  0  0  0
   28.5200   27.7100   33.8900 C   0  0  0  0  0  0  0  0  0  0  0  0
   27.2700   27.0800   33.7600 C   0  0  0  0  0  0  0  0  0  0  0  0
   26.7500   26.8800   32.4900 N   0  0  0  0  0  0  0  0  0  0  0  0
   23.0413   26.0601   36.1569 C   0  0  0  0  0  0  0  0  0  0  0  0
   22.3024   26.2626   34.9355 N   0  0  0  0  0  0  0  0  0  0  0  0
   21.1558   26.8622   34.7937 C   0  0  0  0  0  0  0  0  0  0  0  0
   20.5428   26.9014   33.4829 N   0  0  0  0  0  0  0  0  0  0  0  0
   21.3366   26.5211   32.3085 C   0  0  0  0  0  0  0  0  0  0  0  0
   19.1310   27.2635   33.3140 C   0  0  0  0  0  0  0  0  0  0  0  0
   20.4982   27.5006   35.9874 C   0  0  0  0  0  0  0  0  0  0  0  0
   20.0856   26.4266   36.9428 C   0  0  0  0  0  0  0  0  0  0  0  0
   18.7330   26.2388   37.2639 C   0  0  0  0  0  0  0  0  0  0  0  0
   18.3651   25.2693   38.1961 C   0  0  0  0  0  0  0  0  0  0  0  0
   19.3550   24.5008   38.8066 C   0  0  0  0  0  0  0  0  0  0  0  0
   20.6603   24.6859   38.4771 N   0  0  0  0  0  0  0  0  0  0  0  0
   21.0529   25.6031   37.5519 C   0  0  0  0  0  0  0  0  0  0  0  0
   22.4570   25.7397   37.2796 N   0  0  0  0  0  0  0  0  0  0  0  0
  1  2  1  0
  2  3  2  0
  2  4  1  0
  4  5  2  0
  5  6  1  0
  6  7  2  0
  7  8  1  0
  8  9  2  0
  9 10  1  0
 10 11  2  0
 11 12  1  0
 12 13  2  0
 13 14  1  0
  1 15  1  0
 15 16  1  0
 16 17  2  0
 17 18  1  0
 18 19  1  0
 18 20  1  0
 17 21  1  0
 21 22  1  0
 22 23  2  0
 23 24  1  0
 24 25  2  0
 25 26  1  0
 26 27  2  0
 27 28  1  0
 13  4  1  0
 28 15  2  0
 12  7  1  0
 27 22  1  0
M  END
>  <AAScore>  (1) 
244.7678545948731

>  <RootName>  (1) 
./4ZLY/04_DeltaGEst/trajectory_00/rank_01/lead_0156

$$$$
