confid_10
     RDKit          3D

 27 30  0  0  0  0  0  0  0  0999 V2000
   25.3300   26.2600   34.7600 N   0  0  0  0  0  0  0  0  0  0  0  0
   26.1200   25.9200   33.6900 C   0  0  0  0  0  0  0  0  0  0  0  0
   25.6300   25.1100   32.9400 O   0  0  0  0  0  0  0  0  0  0  0  0
   27.5200   26.3800   33.4600 C   0  0  0  0  0  0  0  0  0  0  0  0
   28.1600   26.6300   34.6100 N   0  0  0  0  0  0  0  0  0  0  0  0
   29.4800   26.8500   34.5700 N   0  0  0  0  0  0  0  0  0  0  0  0
   30.1900   26.7800   33.4400 C   0  0  0  0  0  0  0  0  0  0  0  0
   31.5600   27.0500   33.5000 C   0  0  0  0  0  0  0  0  0  0  0  0
   32.2700   27.2400   32.3100 C   0  0  0  0  0  0  0  0  0  0  0  0
   31.6100   27.2500   31.0800 C   0  0  0  0  0  0  0  0  0  0  0  0
   30.2700   26.8700   31.0600 C   0  0  0  0  0  0  0  0  0  0  0  0
   29.5100   26.6900   32.2300 C   0  0  0  0  0  0  0  0  0  0  0  0
   28.1400   26.4100   32.2000 C   0  0  0  0  0  0  0  0  0  0  0  0
   27.4300   26.1300   31.0500 N   0  0  0  0  0  0  0  0  0  0  0  0
   26.5409   27.1706   30.5029 C   0  0  0  0  0  0  0  0  0  0  0  0
   25.7544   26.6789   29.2817 C   0  0  0  0  0  0  0  0  0  0  0  0
   26.6530   25.9265   28.3481 C   0  0  0  0  0  0  0  0  0  0  0  0
   26.5324   26.0907   27.0057 N   0  0  0  0  0  0  0  0  0  0  0  0
   27.3100   25.3880   26.1458 C   0  0  0  0  0  0  0  0  0  0  0  0
   28.2102   24.4906   26.6207 N   0  0  0  0  0  0  0  0  0  0  0  0
   28.3653   24.2693   27.9551 C   0  0  0  0  0  0  0  0  0  0  0  0
   29.3834   23.2514   28.4006 C   0  0  0  0  0  0  0  0  0  0  0  0
   30.4187   23.8842   29.0645 F   0  0  0  0  0  0  0  0  0  0  0  0
   29.9071   22.5825   27.3077 F   0  0  0  0  0  0  0  0  0  0  0  0
   28.7931   22.3217   29.2378 F   0  0  0  0  0  0  0  0  0  0  0  0
   27.5823   25.0140   28.8683 C   0  0  0  0  0  0  0  0  0  0  0  0
   27.6415   24.8400   30.3690 C   0  0  0  0  0  0  0  0  0  0  0  0
  1  2  1  0
  2  3  2  0
  2  4  1  0
  4  5  2  0
  5  6  1  0
  6  7  2  0
  7  8  1  0
  8  9  2  0
  9 10  1  0
 10 11  2  0
 11 12  1  0
 12 13  2  0
 13 14  1  0
 14 15  1  0
 15 16  1  0
 16 17  1  0
 17 18  2  0
 18 19  1  0
 19 20  2  0
 20 21  1  0
 21 22  1  0
 22 23  1  0
 22 24  1  0
 22 25  1  0
 21 26  2  0
 26 27  1  0
 13  4  1  0
 27 14  1  0
 12  7  1  0
 26 17  1  0
M  END
>  <AAScore>  (1) 
40.853067091653934

>  <RootName>  (1) 
./4ZLY/04_DeltaGEst/trajectory_03/rank_01/lead_0316

$$$$
