confid_16
     RDKit          3D

 29 32  0  0  0  0  0  0  0  0999 V2000
   25.3300   26.2600   34.7600 N   0  0  0  0  0  0  0  0  0  0  0  0
   26.1200   25.9200   33.6900 C   0  0  0  0  0  0  0  0  0  0  0  0
   25.6300   25.1100   32.9400 O   0  0  0  0  0  0  0  0  0  0  0  0
   27.5200   26.3800   33.4600 C   0  0  0  0  0  0  0  0  0  0  0  0
   28.1600   26.6300   34.6100 N   0  0  0  0  0  0  0  0  0  0  0  0
   29.4800   26.8500   34.5700 N   0  0  0  0  0  0  0  0  0  0  0  0
   30.1900   26.7800   33.4400 C   0  0  0  0  0  0  0  0  0  0  0  0
   31.5600   27.0500   33.5000 C   0  0  0  0  0  0  0  0  0  0  0  0
   32.2700   27.2400   32.3100 C   0  0  0  0  0  0  0  0  0  0  0  0
   31.6100   27.2500   31.0800 C   0  0  0  0  0  0  0  0  0  0  0  0
   30.2700   26.8700   31.0600 C   0  0  0  0  0  0  0  0  0  0  0  0
   29.5100   26.6900   32.2300 C   0  0  0  0  0  0  0  0  0  0  0  0
   28.1400   26.4100   32.2000 C   0  0  0  0  0  0  0  0  0  0  0  0
   27.4300   26.1300   31.0500 N   0  0  0  0  0  0  0  0  0  0  0  0
   27.6551   24.8523   30.3582 C   0  0  0  0  0  0  0  0  0  0  0  0
   26.9547   24.8150   28.9903 C   0  0  0  0  0  0  0  0  0  0  0  0
   27.0903   26.1097   28.2976 N   0  0  0  0  0  0  0  0  0  0  0  0
   27.3521   26.1521   26.8754 C   0  0  0  0  0  0  0  0  0  0  0  0
   28.1659   27.1580   26.3205 C   0  0  0  0  0  0  0  0  0  0  0  0
   28.4155   27.1860   24.9439 C   0  0  0  0  0  0  0  0  0  0  0  0
   27.8681   26.2133   24.0950 C   0  0  0  0  0  0  0  0  0  0  0  0
   28.1605   26.2340   22.6140 C   0  0  0  0  0  0  0  0  0  0  0  0
   29.2269   25.2715   22.2683 N   0  0  0  0  0  0  0  0  0  0  0  0
   29.2713   25.0698   20.8122 C   0  0  0  0  0  0  0  0  0  0  0  0
   30.5466   25.7445   22.7342 C   0  0  0  0  0  0  0  0  0  0  0  0
   27.0663   25.2029   24.6424 C   0  0  0  0  0  0  0  0  0  0  0  0
   26.8051   25.1764   26.0175 C   0  0  0  0  0  0  0  0  0  0  0  0
   26.8471   27.3693   29.0305 C   0  0  0  0  0  0  0  0  0  0  0  0
   26.4948   27.1115   30.4960 C   0  0  0  0  0  0  0  0  0  0  0  0
  1  2  1  0
  2  3  2  0
  2  4  1  0
  4  5  2  0
  5  6  1  0
  6  7  2  0
  7  8  1  0
  8  9  2  0
  9 10  1  0
 10 11  2  0
 11 12  1  0
 12 13  2  0
 13 14  1  0
 14 15  1  0
 15 16  1  0
 16 17  1  0
 17 18  1  0
 18 19  2  0
 19 20  1  0
 20 21  2  0
 21 22  1  0
 22 23  1  0
 23 24  1  0
 23 25  1  0
 21 26  1  0
 26 27  2  0
 17 28  1  0
 28 29  1  0
 13  4  1  0
 29 14  1  0
 12  7  1  0
 27 18  1  0
M  END
>  <AAScore>  (1) 
-2.3196875337032234

>  <RootName>  (1) 
./4ZLY/04_DeltaGEst/trajectory_03/rank_01/lead_0412

$$$$
