confid_5
     RDKit          3D

 25 28  0  0  0  0  0  0  0  0999 V2000
   24.5500   26.3900   36.2500 N   0  0  0  0  0  0  0  0  0  0  0  0
   25.6000   26.1300   35.4000 C   0  0  0  0  0  0  0  0  0  0  0  0
   25.4300   25.4300   34.4200 O   0  0  0  0  0  0  0  0  0  0  0  0
   26.9800   26.6300   35.7100 C   0  0  0  0  0  0  0  0  0  0  0  0
   27.3200   26.8200   36.9800 N   0  0  0  0  0  0  0  0  0  0  0  0
   28.4700   27.4000   37.3100 N   0  0  0  0  0  0  0  0  0  0  0  0
   29.4000   27.6300   36.3700 C   0  0  0  0  0  0  0  0  0  0  0  0
   30.6600   28.0500   36.8000 C   0  0  0  0  0  0  0  0  0  0  0  0
   31.5700   28.3600   35.7800 C   0  0  0  0  0  0  0  0  0  0  0  0
   31.3700   28.1000   34.4300 C   0  0  0  0  0  0  0  0  0  0  0  0
   30.1200   27.5900   34.0500 C   0  0  0  0  0  0  0  0  0  0  0  0
   29.1500   27.3400   35.0300 C   0  0  0  0  0  0  0  0  0  0  0  0
   27.8800   26.8900   34.6600 C   0  0  0  0  0  0  0  0  0  0  0  0
   27.4800   26.6100   33.3700 N   0  0  0  0  0  0  0  0  0  0  0  0
   31.0178   28.2812   38.2221 C   0  0  0  0  0  0  0  0  0  0  0  0
   30.6273   27.5015   39.3137 C   0  0  0  0  0  0  0  0  0  0  0  0
   31.1475   27.9629   40.5302 C   0  0  0  0  0  0  0  0  0  0  0  0
   30.9525   27.2978   41.8648 C   0  0  0  0  0  0  0  0  0  0  0  0
   29.6286   26.9173   41.9957 F   0  0  0  0  0  0  0  0  0  0  0  0
   31.7492   26.1656   41.9301 F   0  0  0  0  0  0  0  0  0  0  0  0
   31.2931   28.2227   42.9641 N   0  0  0  0  0  0  0  0  0  0  0  0
   32.6215   28.8341   42.7760 C   0  0  0  0  0  0  0  0  0  0  0  0
   32.6242   29.7567   41.5467 C   0  0  0  0  0  0  0  0  0  0  0  0
   31.9790   29.0602   40.3932 C   0  0  0  0  0  0  0  0  0  0  0  0
   32.0378   29.5107   38.7777 S   0  0  0  0  0  0  0  0  0  0  0  0
  1  2  1  0
  2  3  2  0
  2  4  1  0
  4  5  2  0
  5  6  1  0
  6  7  2  0
  7  8  1  0
  8  9  2  0
  9 10  1  0
 10 11  2  0
 11 12  1  0
 12 13  2  0
 13 14  1  0
  8 15  1  0
 15 16  2  0
 16 17  1  0
 17 18  1  0
 18 19  1  0
 18 20  1  0
 18 21  1  0
 21 22  1  0
 22 23  1  0
 23 24  1  0
 24 25  1  0
 13  4  1  0
 25 15  1  0
 12  7  1  0
 24 17  2  0
M  END
>  <AAScore>  (1) 
247.50311739362945

>  <RootName>  (1) 
./4ZLY/04_DeltaGEst/trajectory_01/rank_01/lead_0314

$$$$
