confid_10
     RDKit          3D

 28 31  0  0  0  0  0  0  0  0999 V2000
   24.5700   26.8800   35.5900 N   0  0  0  0  0  0  0  0  0  0  0  0
   25.5000   26.4000   34.6900 C   0  0  0  0  0  0  0  0  0  0  0  0
   25.1700   25.5200   33.9100 O   0  0  0  0  0  0  0  0  0  0  0  0
   26.8400   27.0200   34.7400 C   0  0  0  0  0  0  0  0  0  0  0  0
   27.3800   27.2800   35.9400 N   0  0  0  0  0  0  0  0  0  0  0  0
   28.6200   27.7400   36.0300 N   0  0  0  0  0  0  0  0  0  0  0  0
   29.3800   28.0000   34.9600 C   0  0  0  0  0  0  0  0  0  0  0  0
   30.6700   28.5000   35.1300 C   0  0  0  0  0  0  0  0  0  0  0  0
   31.5400   28.6100   34.0300 C   0  0  0  0  0  0  0  0  0  0  0  0
   31.0900   28.2200   32.7700 C   0  0  0  0  0  0  0  0  0  0  0  0
   29.8000   27.7000   32.6000 C   0  0  0  0  0  0  0  0  0  0  0  0
   28.9600   27.5500   33.7100 C   0  0  0  0  0  0  0  0  0  0  0  0
   27.6600   27.0300   33.5900 C   0  0  0  0  0  0  0  0  0  0  0  0
   27.1600   26.7400   32.3400 N   0  0  0  0  0  0  0  0  0  0  0  0
   23.1692   26.5563   35.5623 C   0  0  0  0  0  0  0  0  0  0  0  0
   22.4138   26.1861   34.4460 C   0  0  0  0  0  0  0  0  0  0  0  0
   21.1244   26.1350   34.8241 N   0  0  0  0  0  0  0  0  0  0  0  0
   19.8632   26.2861   34.1286 C   0  0  0  0  0  0  0  0  0  0  0  0
   18.8913   26.7371   35.2598 C   0  0  0  0  0  0  0  0  0  0  0  0
   19.7204   26.8798   36.4682 N   0  0  0  0  0  0  0  0  0  0  0  0
   19.2127   26.9167   37.8104 C   0  0  0  0  0  0  0  0  0  0  0  0
   19.9399   26.5496   38.7724 O   0  0  0  0  0  0  0  0  0  0  0  0
   17.8042   27.3413   38.0782 C   0  0  0  0  0  0  0  0  0  0  0  0
   21.0268   26.4983   36.0838 C   0  0  0  0  0  0  0  0  0  0  0  0
   22.2687   26.8289   36.5885 C   0  0  0  0  0  0  0  0  0  0  0  0
   22.5730   27.4344   37.8096 O   0  0  0  0  0  0  0  0  0  0  0  0
   22.1625   28.7638   38.1231 C   0  0  0  0  0  0  0  0  0  0  0  0
   23.0209   29.7763   37.3758 C   0  0  0  0  0  0  0  0  0  0  0  0
  1  2  1  0
  2  3  2  0
  2  4  1  0
  4  5  2  0
  5  6  1  0
  6  7  2  0
  7  8  1  0
  8  9  2  0
  9 10  1  0
 10 11  2  0
 11 12  1  0
 12 13  2  0
 13 14  1  0
  1 15  1  0
 15 16  2  0
 16 17  1  0
 17 18  1  0
 18 19  1  0
 19 20  1  0
 20 21  1  0
 21 22  2  0
 21 23  1  0
 20 24  1  0
 24 25  2  0
 25 26  1  0
 26 27  1  0
 27 28  1  0
 13  4  1  0
 25 15  1  0
 12  7  1  0
 24 17  1  0
M  END
>  <AAScore>  (1) 
725.0600771627367

>  <RootName>  (1) 
./4ZLY/04_DeltaGEst/trajectory_05/rank_00/lead_0278

$$$$
