confid_1
     RDKit          3D

 26 28  0  0  0  0  0  0  0  0999 V2000
   24.5700   26.8800   35.5900 N   0  0  0  0  0  0  0  0  0  0  0  0
   25.5000   26.4000   34.6900 C   0  0  0  0  0  0  0  0  0  0  0  0
   25.1700   25.5200   33.9100 O   0  0  0  0  0  0  0  0  0  0  0  0
   26.8400   27.0200   34.7400 C   0  0  0  0  0  0  0  0  0  0  0  0
   27.3800   27.2800   35.9400 N   0  0  0  0  0  0  0  0  0  0  0  0
   28.6200   27.7400   36.0300 N   0  0  0  0  0  0  0  0  0  0  0  0
   29.3800   28.0000   34.9600 C   0  0  0  0  0  0  0  0  0  0  0  0
   30.6700   28.5000   35.1300 C   0  0  0  0  0  0  0  0  0  0  0  0
   31.5400   28.6100   34.0300 C   0  0  0  0  0  0  0  0  0  0  0  0
   31.0900   28.2200   32.7700 C   0  0  0  0  0  0  0  0  0  0  0  0
   29.8000   27.7000   32.6000 C   0  0  0  0  0  0  0  0  0  0  0  0
   28.9600   27.5500   33.7100 C   0  0  0  0  0  0  0  0  0  0  0  0
   27.6600   27.0300   33.5900 C   0  0  0  0  0  0  0  0  0  0  0  0
   27.1600   26.7400   32.3400 N   0  0  0  0  0  0  0  0  0  0  0  0
   33.1436   29.3119   34.2246 S   0  0  0  0  0  6  0  0  0  0  0  0
   34.0898   28.6748   33.2457 O   0  0  0  0  0  0  0  0  0  0  0  0
   33.6448   29.0433   35.6157 O   0  0  0  0  0  0  0  0  0  0  0  0
   33.0987   31.0766   33.9489 C   0  0  0  0  0  0  0  0  0  0  0  0
   32.4053   31.3943   32.6512 C   0  0  0  0  0  0  0  0  0  0  0  0
   31.0113   31.6048   32.4899 C   0  0  0  0  0  0  0  0  0  0  0  0
   30.0003   31.6175   33.6056 C   0  0  0  0  0  0  0  0  0  0  0  0
   30.6431   31.8173   31.1570 C   0  0  0  0  0  0  0  0  0  0  0  0
   29.2506   32.1351   30.6723 C   0  0  0  0  0  0  0  0  0  0  0  0
   29.1057   32.0489   29.1544 C   0  0  0  0  0  0  0  0  0  0  0  0
   32.0343   31.7583   30.2087 S   0  0  0  0  0  0  0  0  0  0  0  0
   33.1117   31.4392   31.4523 C   0  0  0  0  0  0  0  0  0  0  0  0
  1  2  1  0
  2  3  2  0
  2  4  1  0
  4  5  2  0
  5  6  1  0
  6  7  2  0
  7  8  1  0
  8  9  2  0
  9 10  1  0
 10 11  2  0
 11 12  1  0
 12 13  2  0
 13 14  1  0
  9 15  1  0
 15 16  2  0
 15 17  2  0
 15 18  1  0
 18 19  1  0
 19 20  1  0
 20 21  1  0
 20 22  2  0
 22 23  1  0
 23 24  1  0
 22 25  1  0
 25 26  1  0
 13  4  1  0
 26 19  2  0
 12  7  1  0
M  END
>  <AAScore>  (1) 
5.702834404434566

>  <RootName>  (1) 
./4ZLY/04_DeltaGEst/trajectory_05/rank_01/lead_0229

$$$$
