confid_5
     RDKit          3D

 27 30  0  0  0  0  0  0  0  0999 V2000
   24.5500   26.3900   36.2500 N   0  0  0  0  0  0  0  0  0  0  0  0
   25.6000   26.1300   35.4000 C   0  0  0  0  0  0  0  0  0  0  0  0
   25.4300   25.4300   34.4200 O   0  0  0  0  0  0  0  0  0  0  0  0
   26.9800   26.6300   35.7100 C   0  0  0  0  0  0  0  0  0  0  0  0
   27.3200   26.8200   36.9800 N   0  0  0  0  0  0  0  0  0  0  0  0
   28.4700   27.4000   37.3100 N   0  0  0  0  0  0  0  0  0  0  0  0
   29.4000   27.6300   36.3700 C   0  0  0  0  0  0  0  0  0  0  0  0
   30.6600   28.0500   36.8000 C   0  0  0  0  0  0  0  0  0  0  0  0
   31.5700   28.3600   35.7800 C   0  0  0  0  0  0  0  0  0  0  0  0
   31.3700   28.1000   34.4300 C   0  0  0  0  0  0  0  0  0  0  0  0
   30.1200   27.5900   34.0500 C   0  0  0  0  0  0  0  0  0  0  0  0
   29.1500   27.3400   35.0300 C   0  0  0  0  0  0  0  0  0  0  0  0
   27.8800   26.8900   34.6600 C   0  0  0  0  0  0  0  0  0  0  0  0
   27.4800   26.6100   33.3700 N   0  0  0  0  0  0  0  0  0  0  0  0
   30.9684   28.3067   38.1798 N   0  0  0  0  0  0  0  0  0  0  0  0
   32.0464   27.5435   38.8237 C   0  0  0  0  0  0  0  0  0  0  0  0
   32.2247   27.9565   40.2894 C   0  0  0  0  0  0  0  0  0  0  0  0
   30.9143   28.0855   40.9382 N   0  0  0  0  0  0  0  0  0  0  0  0
   30.6140   27.2783   42.0855 C   0  0  0  0  0  0  0  0  0  0  0  0
   30.3242   27.8617   43.3336 C   0  0  0  0  0  0  0  0  0  0  0  0
   30.3926   29.6010   43.5821 Cl  0  0  0  0  0  0  0  0  0  0  0  0
   30.0222   27.0311   44.4177 C   0  0  0  0  0  0  0  0  0  0  0  0
   30.0271   25.6444   44.2575 C   0  0  0  0  0  0  0  0  0  0  0  0
   30.3351   25.1016   43.0092 C   0  0  0  0  0  0  0  0  0  0  0  0
   30.6188   25.9214   41.9625 N   0  0  0  0  0  0  0  0  0  0  0  0
   29.8323   28.8413   40.2875 C   0  0  0  0  0  0  0  0  0  0  0  0
   30.2657   29.3657   38.9146 C   0  0  0  0  0  0  0  0  0  0  0  0
  1  2  1  0
  2  3  2  0
  2  4  1  0
  4  5  2  0
  5  6  1  0
  6  7  2  0
  7  8  1  0
  8  9  2  0
  9 10  1  0
 10 11  2  0
 11 12  1  0
 12 13  2  0
 13 14  1  0
  8 15  1  0
 15 16  1  0
 16 17  1  0
 17 18  1  0
 18 19  1  0
 19 20  2  0
 20 21  1  0
 20 22  1  0
 22 23  2  0
 23 24  1  0
 24 25  2  0
 18 26  1  0
 26 27  1  0
 13  4  1  0
 27 15  1  0
 12  7  1  0
 25 19  1  0
M  END
>  <AAScore>  (1) 
1011.950634054676

>  <RootName>  (1) 
./4ZLY/04_DeltaGEst/trajectory_01/rank_01/lead_0471

$$$$
