confid_4
     RDKit          3D

 29 32  0  0  0  0  0  0  0  0999 V2000
   24.4800   26.1000   36.1300 N   0  0  0  0  0  0  0  0  0  0  0  0
   25.2500   26.2500   34.9900 C   0  0  0  0  0  0  0  0  0  0  0  0
   24.7400   25.7600   33.9900 O   0  0  0  0  0  0  0  0  0  0  0  0
   26.5900   26.8900   34.9600 C   0  0  0  0  0  0  0  0  0  0  0  0
   27.0600   27.2400   36.1600 N   0  0  0  0  0  0  0  0  0  0  0  0
   28.3000   27.7100   36.2400 N   0  0  0  0  0  0  0  0  0  0  0  0
   29.0500   27.9600   35.1500 C   0  0  0  0  0  0  0  0  0  0  0  0
   30.3400   28.4900   35.2600 C   0  0  0  0  0  0  0  0  0  0  0  0
   31.1100   28.8200   34.1400 C   0  0  0  0  0  0  0  0  0  0  0  0
   30.5200   28.6700   32.8800 C   0  0  0  0  0  0  0  0  0  0  0  0
   29.2900   28.0200   32.7700 C   0  0  0  0  0  0  0  0  0  0  0  0
   28.5200   27.7100   33.8900 C   0  0  0  0  0  0  0  0  0  0  0  0
   27.2700   27.0800   33.7600 C   0  0  0  0  0  0  0  0  0  0  0  0
   26.7500   26.8800   32.4900 N   0  0  0  0  0  0  0  0  0  0  0  0
   23.0413   26.0645   36.1571 C   0  0  0  0  0  0  0  0  0  0  0  0
   22.3024   26.2768   34.9377 N   0  0  0  0  0  0  0  0  0  0  0  0
   21.1560   26.8791   34.8016 C   0  0  0  0  0  0  0  0  0  0  0  0
   20.5403   26.9270   33.4919 N   0  0  0  0  0  0  0  0  0  0  0  0
   19.1349   27.3147   33.3255 C   0  0  0  0  0  0  0  0  0  0  0  0
   21.3234   26.5242   32.3175 C   0  0  0  0  0  0  0  0  0  0  0  0
   20.5025   27.5117   36.0012 C   0  0  0  0  0  0  0  0  0  0  0  0
   20.0825   26.4333   36.9493 C   0  0  0  0  0  0  0  0  0  0  0  0
   18.7237   26.2582   37.2632 C   0  0  0  0  0  0  0  0  0  0  0  0
   18.3336   25.2851   38.1866 C   0  0  0  0  0  0  0  0  0  0  0  0
   17.0216   25.1245   38.4887 F   0  0  0  0  0  0  0  0  0  0  0  0
   19.2956   24.4873   38.8084 C   0  0  0  0  0  0  0  0  0  0  0  0
   20.6477   24.6506   38.4971 C   0  0  0  0  0  0  0  0  0  0  0  0
   21.0510   25.6007   37.5494 C   0  0  0  0  0  0  0  0  0  0  0  0
   22.4564   25.7359   37.2774 N   0  0  0  0  0  0  0  0  0  0  0  0
  1  2  1  0
  2  3  2  0
  2  4  1  0
  4  5  2  0
  5  6  1  0
  6  7  2  0
  7  8  1  0
  8  9  2  0
  9 10  1  0
 10 11  2  0
 11 12  1  0
 12 13  2  0
 13 14  1  0
  1 15  1  0
 15 16  1  0
 16 17  2  0
 17 18  1  0
 18 19  1  0
 18 20  1  0
 17 21  1  0
 21 22  1  0
 22 23  2  0
 23 24  1  0
 24 25  1  0
 24 26  2  0
 26 27  1  0
 27 28  2  0
 28 29  1  0
 13  4  1  0
 29 15  2  0
 12  7  1  0
 28 22  1  0
M  END
>  <AAScore>  (1) 
288.06342578585424

>  <RootName>  (1) 
./4ZLY/04_DeltaGEst/trajectory_00/rank_01/lead_0173

$$$$
