confid_13
     RDKit          3D

 27 29  0  0  0  0  0  0  0  0999 V2000
   24.5700   26.8800   35.5900 N   0  0  0  0  0  0  0  0  0  0  0  0
   25.5000   26.4000   34.6900 C   0  0  0  0  0  0  0  0  0  0  0  0
   25.1700   25.5200   33.9100 O   0  0  0  0  0  0  0  0  0  0  0  0
   26.8400   27.0200   34.7400 C   0  0  0  0  0  0  0  0  0  0  0  0
   27.3800   27.2800   35.9400 N   0  0  0  0  0  0  0  0  0  0  0  0
   28.6200   27.7400   36.0300 N   0  0  0  0  0  0  0  0  0  0  0  0
   29.3800   28.0000   34.9600 C   0  0  0  0  0  0  0  0  0  0  0  0
   30.6700   28.5000   35.1300 C   0  0  0  0  0  0  0  0  0  0  0  0
   31.5400   28.6100   34.0300 C   0  0  0  0  0  0  0  0  0  0  0  0
   31.0900   28.2200   32.7700 C   0  0  0  0  0  0  0  0  0  0  0  0
   29.8000   27.7000   32.6000 C   0  0  0  0  0  0  0  0  0  0  0  0
   28.9600   27.5500   33.7100 C   0  0  0  0  0  0  0  0  0  0  0  0
   27.6600   27.0300   33.5900 C   0  0  0  0  0  0  0  0  0  0  0  0
   27.1600   26.7400   32.3400 N   0  0  0  0  0  0  0  0  0  0  0  0
   33.1695   29.2501   34.2201 S   0  0  0  0  0  6  0  0  0  0  0  0
   33.3887   29.6953   35.6396 O   0  0  0  0  0  0  0  0  0  0  0  0
   34.1526   28.1601   33.8950 O   0  0  0  0  0  0  0  0  0  0  0  0
   33.3929   30.5999   33.1336 N   0  0  0  0  0  0  0  0  0  0  0  0
   32.4358   31.6998   33.4099 C   0  0  0  0  0  0  0  0  0  0  0  0
   33.0623   33.0334   33.9103 C   0  0  0  0  0  0  0  0  0  0  0  0
   31.9792   34.1343   33.8191 C   0  0  0  0  0  0  0  0  0  0  0  0
   33.4572   32.9141   35.4036 C   0  0  0  0  0  0  0  0  0  0  0  0
   34.2904   33.4644   33.0447 C   0  0  0  0  0  0  0  0  0  0  0  0
   35.0400   32.3053   32.3187 C   0  0  0  0  0  0  0  0  0  0  0  0
   36.5541   32.6099   32.2961 C   0  0  0  0  0  0  0  0  0  0  0  0
   34.5600   32.1808   30.8520 C   0  0  0  0  0  0  0  0  0  0  0  0
   34.8175   30.9685   33.0571 C   0  0  0  0  0  0  0  0  0  0  0  0
  1  2  1  0
  2  3  2  0
  2  4  1  0
  4  5  2  0
  5  6  1  0
  6  7  2  0
  7  8  1  0
  8  9  2  0
  9 10  1  0
 10 11  2  0
 11 12  1  0
 12 13  2  0
 13 14  1  0
  9 15  1  0
 15 16  2  0
 15 17  2  0
 15 18  1  0
 18 19  1  0
 19 20  1  0
 20 21  1  0
 20 22  1  0
 20 23  1  0
 23 24  1  0
 24 25  1  0
 24 26  1  0
 24 27  1  0
 13  4  1  0
 27 18  1  0
 12  7  1  0
M  END
>  <AAScore>  (1) 
-6.390039310157054

>  <RootName>  (1) 
./4ZLY/04_DeltaGEst/trajectory_05/rank_01/lead_0223

$$$$
