confid_19
     RDKit          3D

 28 31  0  0  0  0  0  0  0  0999 V2000
   24.4800   26.1000   36.1300 N   0  0  0  0  0  0  0  0  0  0  0  0
   25.2500   26.2500   34.9900 C   0  0  0  0  0  0  0  0  0  0  0  0
   24.7400   25.7600   33.9900 O   0  0  0  0  0  0  0  0  0  0  0  0
   26.5900   26.8900   34.9600 C   0  0  0  0  0  0  0  0  0  0  0  0
   27.0600   27.2400   36.1600 N   0  0  0  0  0  0  0  0  0  0  0  0
   28.3000   27.7100   36.2400 N   0  0  0  0  0  0  0  0  0  0  0  0
   29.0500   27.9600   35.1500 C   0  0  0  0  0  0  0  0  0  0  0  0
   30.3400   28.4900   35.2600 C   0  0  0  0  0  0  0  0  0  0  0  0
   31.1100   28.8200   34.1400 C   0  0  0  0  0  0  0  0  0  0  0  0
   30.5200   28.6700   32.8800 C   0  0  0  0  0  0  0  0  0  0  0  0
   29.2900   28.0200   32.7700 C   0  0  0  0  0  0  0  0  0  0  0  0
   28.5200   27.7100   33.8900 C   0  0  0  0  0  0  0  0  0  0  0  0
   27.2700   27.0800   33.7600 C   0  0  0  0  0  0  0  0  0  0  0  0
   26.7500   26.8800   32.4900 N   0  0  0  0  0  0  0  0  0  0  0  0
   23.4492   25.1061   36.3156 C   0  0  0  0  0  0  0  0  0  0  0  0
   23.3869   24.0206   35.4946 N   0  0  0  0  0  0  0  0  0  0  0  0
   22.4533   23.0439   35.6377 C   0  0  0  0  0  0  0  0  0  0  0  0
   22.4224   21.9132   34.6511 C   0  0  0  0  0  0  0  0  0  0  0  0
   21.5727   20.7443   35.1554 C   0  0  0  0  0  0  0  0  0  0  0  0
   20.2698   21.2435   35.6383 N   0  0  0  0  0  0  0  0  0  0  0  0
   20.4672   22.0547   36.8619 C   0  0  0  0  0  0  0  0  0  0  0  0
   21.4852   23.1490   36.6488 C   0  0  0  0  0  0  0  0  0  0  0  0
   21.5406   24.2380   37.5263 C   0  0  0  0  0  0  0  0  0  0  0  0
   22.5226   25.2323   37.3672 C   0  0  0  0  0  0  0  0  0  0  0  0
   22.6009   26.3447   38.2211 O   0  0  0  0  0  0  0  0  0  0  0  0
   21.7246   26.5847   39.3175 C   0  0  0  0  0  0  0  0  0  0  0  0
   19.3539   20.1103   35.8971 C   0  0  0  0  0  0  0  0  0  0  0  0
   17.8993   20.5758   35.9429 C   0  0  0  0  0  0  0  0  0  0  0  0
  1  2  1  0
  2  3  2  0
  2  4  1  0
  4  5  2  0
  5  6  1  0
  6  7  2  0
  7  8  1  0
  8  9  2  0
  9 10  1  0
 10 11  2  0
 11 12  1  0
 12 13  2  0
 13 14  1  0
  1 15  1  0
 15 16  2  0
 16 17  1  0
 17 18  1  0
 18 19  1  0
 19 20  1  0
 20 21  1  0
 21 22  1  0
 22 23  1  0
 23 24  2  0
 24 25  1  0
 25 26  1  0
 20 27  1  0
 27 28  1  0
 13  4  1  0
 24 15  1  0
 12  7  1  0
 22 17  2  0
M  END
>  <AAScore>  (1) 
258.6840998416408

>  <RootName>  (1) 
./4ZLY/04_DeltaGEst/trajectory_00/rank_01/lead_0330

$$$$
