confid_18
     RDKit          3D

 29 32  0  0  0  0  0  0  0  0999 V2000
   24.6900   26.1200   35.5300 N   0  0  0  0  0  0  0  0  0  0  0  0
   25.6600   25.6700   34.6600 C   0  0  0  0  0  0  0  0  0  0  0  0
   25.2400   25.0100   33.7200 O   0  0  0  0  0  0  0  0  0  0  0  0
   27.0300   26.2200   34.8800 C   0  0  0  0  0  0  0  0  0  0  0  0
   27.3500   26.7300   36.0700 N   0  0  0  0  0  0  0  0  0  0  0  0
   28.5700   27.1800   36.3300 N   0  0  0  0  0  0  0  0  0  0  0  0
   29.5300   27.1100   35.3900 C   0  0  0  0  0  0  0  0  0  0  0  0
   30.8300   27.5700   35.6500 C   0  0  0  0  0  0  0  0  0  0  0  0
   31.8500   27.5400   34.6900 C   0  0  0  0  0  0  0  0  0  0  0  0
   31.5100   27.1200   33.4000 C   0  0  0  0  0  0  0  0  0  0  0  0
   30.2200   26.6300   33.1100 C   0  0  0  0  0  0  0  0  0  0  0  0
   29.2400   26.6600   34.1000 C   0  0  0  0  0  0  0  0  0  0  0  0
   27.9300   26.2600   33.8100 C   0  0  0  0  0  0  0  0  0  0  0  0
   27.5200   25.7100   32.6100 N   0  0  0  0  0  0  0  0  0  0  0  0
   31.1464   28.0608   36.9600 N   0  0  0  0  0  0  0  0  0  0  0  0
   31.8905   27.1984   37.8868 C   0  0  0  0  0  0  0  0  0  0  0  0
   32.0798   27.8767   39.2477 C   0  0  0  0  0  0  0  0  0  0  0  0
   30.8242   28.5097   39.6692 N   0  0  0  0  0  0  0  0  0  0  0  0
   30.2399   28.1579   40.9322 C   0  0  0  0  0  0  0  0  0  0  0  0
   29.6767   26.8849   41.0882 C   0  0  0  0  0  0  0  0  0  0  0  0
   29.0766   26.5179   42.2930 C   0  0  0  0  0  0  0  0  0  0  0  0
   29.0332   27.4239   43.3676 C   0  0  0  0  0  0  0  0  0  0  0  0
   28.4372   27.1044   44.5967 O   0  0  0  0  0  0  0  0  0  0  0  0
   27.8531   25.8425   44.9019 C   0  0  0  0  0  0  0  0  0  0  0  0
   29.5999   28.6949   43.2151 C   0  0  0  0  0  0  0  0  0  0  0  0
   30.2191   29.0701   42.0117 C   0  0  0  0  0  0  0  0  0  0  0  0
   30.8307   30.4383   41.8914 C   0  0  0  0  0  0  0  0  0  0  0  0
   30.0670   29.3626   38.7412 C   0  0  0  0  0  0  0  0  0  0  0  0
   30.7267   29.4092   37.3584 C   0  0  0  0  0  0  0  0  0  0  0  0
  1  2  1  0
  2  3  2  0
  2  4  1  0
  4  5  2  0
  5  6  1  0
  6  7  2  0
  7  8  1  0
  8  9  2  0
  9 10  1  0
 10 11  2  0
 11 12  1  0
 12 13  2  0
 13 14  1  0
  8 15  1  0
 15 16  1  0
 16 17  1  0
 17 18  1  0
 18 19  1  0
 19 20  2  0
 20 21  1  0
 21 22  2  0
 22 23  1  0
 23 24  1  0
 22 25  1  0
 25 26  2  0
 26 27  1  0
 18 28  1  0
 28 29  1  0
 13  4  1  0
 29 15  1  0
 12  7  1  0
 26 19  1  0
M  END
>  <AAScore>  (1) 
12.166679579287344

>  <RootName>  (1) 
./4ZLY/04_DeltaGEst/trajectory_02/rank_01/lead_0183

$$$$
