confid_17
     RDKit          3D

 27 30  0  0  0  0  0  0  0  0999 V2000
   24.2000   26.2400   35.6900 N   0  0  0  0  0  0  0  0  0  0  0  0
   24.8500   26.2800   34.4800 C   0  0  0  0  0  0  0  0  0  0  0  0
   24.3100   25.7400   33.5400 O   0  0  0  0  0  0  0  0  0  0  0  0
   26.1800   26.9700   34.4700 C   0  0  0  0  0  0  0  0  0  0  0  0
   26.6500   27.6000   35.5500 N   0  0  0  0  0  0  0  0  0  0  0  0
   27.7900   28.2700   35.6200 N   0  0  0  0  0  0  0  0  0  0  0  0
   28.5400   28.3000   34.5100 C   0  0  0  0  0  0  0  0  0  0  0  0
   29.7700   28.9400   34.5600 C   0  0  0  0  0  0  0  0  0  0  0  0
   30.7000   28.8900   33.5000 C   0  0  0  0  0  0  0  0  0  0  0  0
   30.3700   28.1400   32.3700 C   0  0  0  0  0  0  0  0  0  0  0  0
   29.1200   27.5200   32.2800 C   0  0  0  0  0  0  0  0  0  0  0  0
   28.2100   27.6100   33.3300 C   0  0  0  0  0  0  0  0  0  0  0  0
   26.9700   26.9700   33.3100 C   0  0  0  0  0  0  0  0  0  0  0  0
   26.5300   26.2400   32.2200 N   0  0  0  0  0  0  0  0  0  0  0  0
   30.1387   29.6673   35.7403 N   0  0  0  0  0  0  0  0  0  0  0  0
   29.8969   31.1189   35.7722 C   0  0  0  0  0  0  0  0  0  0  0  0
   30.6349   31.8105   36.9265 C   0  0  0  0  0  0  0  0  0  0  0  0
   30.4797   31.0293   38.2051 C   0  0  0  0  0  0  0  0  0  0  0  0
   30.5652   29.6293   38.1479 C   0  0  0  0  0  0  0  0  0  0  0  0
   30.4612   28.8907   39.2858 N   0  0  0  0  0  0  0  0  0  0  0  0
   30.2626   29.4700   40.4986 C   0  0  0  0  0  0  0  0  0  0  0  0
   30.1814   30.8589   40.6064 C   0  0  0  0  0  0  0  0  0  0  0  0
   30.3032   31.6503   39.4584 C   0  0  0  0  0  0  0  0  0  0  0  0
   30.2539   33.0778   39.5796 N   0  0  0  0  0  0  0  0  0  0  0  0
   31.5068   33.8323   39.6337 C   0  0  0  0  0  0  0  0  0  0  0  0
   28.9532   33.7354   39.7056 C   0  0  0  0  0  0  0  0  0  0  0  0
   30.8134   28.9518   36.8326 C   0  0  0  0  0  0  0  0  0  0  0  0
  1  2  1  0
  2  3  2  0
  2  4  1  0
  4  5  2  0
  5  6  1  0
  6  7  2  0
  7  8  1  0
  8  9  2  0
  9 10  1  0
 10 11  2  0
 11 12  1  0
 12 13  2  0
 13 14  1  0
  8 15  1  0
 15 16  1  0
 16 17  1  0
 17 18  1  0
 18 19  2  0
 19 20  1  0
 20 21  2  0
 21 22  1  0
 22 23  2  0
 23 24  1  0
 24 25  1  0
 24 26  1  0
 19 27  1  0
 13  4  1  0
 27 15  1  0
 12  7  1  0
 23 18  1  0
M  END
>  <AAScore>  (1) 
-8.84146223719756

>  <RootName>  (1) 
./4ZLY/04_DeltaGEst/trajectory_04/rank_01/lead_0407

$$$$
