confid_11
     RDKit          3D

 28 32  0  0  0  0  0  0  0  0999 V2000
   24.5500   26.3900   36.2500 N   0  0  0  0  0  0  0  0  0  0  0  0
   25.6000   26.1300   35.4000 C   0  0  0  0  0  0  0  0  0  0  0  0
   25.4300   25.4300   34.4200 O   0  0  0  0  0  0  0  0  0  0  0  0
   26.9800   26.6300   35.7100 C   0  0  0  0  0  0  0  0  0  0  0  0
   27.3200   26.8200   36.9800 N   0  0  0  0  0  0  0  0  0  0  0  0
   28.4700   27.4000   37.3100 N   0  0  0  0  0  0  0  0  0  0  0  0
   29.4000   27.6300   36.3700 C   0  0  0  0  0  0  0  0  0  0  0  0
   30.6600   28.0500   36.8000 C   0  0  0  0  0  0  0  0  0  0  0  0
   31.5700   28.3600   35.7800 C   0  0  0  0  0  0  0  0  0  0  0  0
   31.3700   28.1000   34.4300 C   0  0  0  0  0  0  0  0  0  0  0  0
   30.1200   27.5900   34.0500 C   0  0  0  0  0  0  0  0  0  0  0  0
   29.1500   27.3400   35.0300 C   0  0  0  0  0  0  0  0  0  0  0  0
   27.8800   26.8900   34.6600 C   0  0  0  0  0  0  0  0  0  0  0  0
   27.4800   26.6100   33.3700 N   0  0  0  0  0  0  0  0  0  0  0  0
   30.9680   28.3040   38.1877 N   0  0  0  0  0  0  0  0  0  0  0  0
   31.4596   29.6157   38.6229 C   0  0  0  0  0  0  0  0  0  0  0  0
   30.2810   30.5225   38.9847 C   0  0  0  0  0  0  0  0  0  0  0  0
   29.1088   29.7383   39.4275 N   0  0  0  0  0  0  0  0  0  0  0  0
   29.2827   28.8337   40.5360 C   0  0  0  0  0  0  0  0  0  0  0  0
   28.6211   29.1162   41.7438 C   0  0  0  0  0  0  0  0  0  0  0  0
   28.7529   28.2707   42.8447 C   0  0  0  0  0  0  0  0  0  0  0  0
   29.5450   27.1286   42.7556 C   0  0  0  0  0  0  0  0  0  0  0  0
   30.2110   26.8297   41.5664 C   0  0  0  0  0  0  0  0  0  0  0  0
   30.1041   27.6726   40.4454 C   0  0  0  0  0  0  0  0  0  0  0  0
   30.8386   27.2372   39.1867 C   0  0  0  0  0  0  0  0  0  0  0  0
   27.7152   29.9700   38.9800 C   0  0  0  0  0  0  0  0  0  0  0  0
   27.5123   30.3808   37.5277 C   0  0  0  0  0  0  0  0  0  0  0  0
   27.3456   31.4075   38.6448 C   0  0  0  0  0  0  0  0  0  0  0  0
  1  2  1  0
  2  3  2  0
  2  4  1  0
  4  5  2  0
  5  6  1  0
  6  7  2  0
  7  8  1  0
  8  9  2  0
  9 10  1  0
 10 11  2  0
 11 12  1  0
 12 13  2  0
 13 14  1  0
  8 15  1  0
 15 16  1  0
 16 17  1  0
 17 18  1  0
 18 19  1  0
 19 20  2  0
 20 21  1  0
 21 22  2  0
 22 23  1  0
 23 24  2  0
 24 25  1  0
 18 26  1  0
 26 27  1  0
 27 28  1  0
 13  4  1  0
 25 15  1  0
 28 26  1  0
 12  7  1  0
 24 19  1  0
M  END
>  <AAScore>  (1) 
-5.791666937138814

>  <RootName>  (1) 
./4ZLY/04_DeltaGEst/trajectory_01/rank_01/lead_0096

$$$$
