confid_6
     RDKit          3D

 29 32  0  0  0  0  0  0  0  0999 V2000
   24.4800   26.1000   36.1300 N   0  0  0  0  0  0  0  0  0  0  0  0
   25.2500   26.2500   34.9900 C   0  0  0  0  0  0  0  0  0  0  0  0
   24.7400   25.7600   33.9900 O   0  0  0  0  0  0  0  0  0  0  0  0
   26.5900   26.8900   34.9600 C   0  0  0  0  0  0  0  0  0  0  0  0
   27.0600   27.2400   36.1600 N   0  0  0  0  0  0  0  0  0  0  0  0
   28.3000   27.7100   36.2400 N   0  0  0  0  0  0  0  0  0  0  0  0
   29.0500   27.9600   35.1500 C   0  0  0  0  0  0  0  0  0  0  0  0
   30.3400   28.4900   35.2600 C   0  0  0  0  0  0  0  0  0  0  0  0
   31.1100   28.8200   34.1400 C   0  0  0  0  0  0  0  0  0  0  0  0
   30.5200   28.6700   32.8800 C   0  0  0  0  0  0  0  0  0  0  0  0
   29.2900   28.0200   32.7700 C   0  0  0  0  0  0  0  0  0  0  0  0
   28.5200   27.7100   33.8900 C   0  0  0  0  0  0  0  0  0  0  0  0
   27.2700   27.0800   33.7600 C   0  0  0  0  0  0  0  0  0  0  0  0
   26.7500   26.8800   32.4900 N   0  0  0  0  0  0  0  0  0  0  0  0
   23.5478   25.0285   36.3535 C   0  0  0  0  0  0  0  0  0  0  0  0
   22.5047   25.2453   37.0931 N   0  0  0  0  0  0  0  0  0  0  0  0
   21.5513   24.2189   37.3953 C   0  0  0  0  0  0  0  0  0  0  0  0
   21.5466   23.0446   36.7321 C   0  0  0  0  0  0  0  0  0  0  0  0
   20.4349   22.0588   37.0387 C   0  0  0  0  0  0  0  0  0  0  0  0
   19.1179   22.4399   36.4545 N   0  0  0  0  0  0  0  0  0  0  0  0
   18.3664   23.3402   37.3559 C   0  0  0  0  0  0  0  0  0  0  0  0
   19.1821   22.9619   35.0543 C   0  0  2  0  0  0  0  0  0  0  0  0
   17.7608   23.1556   34.4814 C   0  0  0  0  0  0  0  0  0  0  0  0
   19.9716   21.9782   34.1218 C   0  0  0  0  0  0  0  0  0  0  0  0
   21.1829   22.4244   33.5199 O   0  0  0  0  0  0  0  0  0  0  0  0
   22.0116   23.3164   34.2524 C   0  0  0  0  0  0  0  0  0  0  0  0
   22.5783   22.8015   35.6147 C   0  0  2  0  0  0  0  0  0  0  0  0
   23.0206   21.3204   35.5090 C   0  0  0  0  0  0  0  0  0  0  0  0
   23.8703   23.6087   35.9564 C   0  0  0  0  0  0  0  0  0  0  0  0
  1  2  1  0
  2  3  2  0
  2  4  1  0
  4  5  2  0
  5  6  1  0
  6  7  2  0
  7  8  1  0
  8  9  2  0
  9 10  1  0
 10 11  2  0
 11 12  1  0
 12 13  2  0
 13 14  1  0
  1 15  1  0
 15 16  2  0
 16 17  1  0
 17 18  2  0
 18 19  1  0
 19 20  1  0
 20 21  1  0
 20 22  1  0
 22 23  1  6
 22 24  1  0
 24 25  1  0
 25 26  1  0
 26 27  1  0
 27 28  1  6
 27 29  1  0
 13  4  1  0
 29 15  1  0
 12  7  1  0
 27 18  1  0
M  END
>  <AAScore>  (1) 
4500.829267334841

>  <RootName>  (1) 
./4ZLY/04_DeltaGEst/trajectory_00/rank_00/lead_0112

$$$$
