confid_10
     RDKit          3D

 27 30  0  0  0  0  0  0  0  0999 V2000
   24.5500   26.3900   36.2500 N   0  0  0  0  0  0  0  0  0  0  0  0
   25.6000   26.1300   35.4000 C   0  0  0  0  0  0  0  0  0  0  0  0
   25.4300   25.4300   34.4200 O   0  0  0  0  0  0  0  0  0  0  0  0
   26.9800   26.6300   35.7100 C   0  0  0  0  0  0  0  0  0  0  0  0
   27.3200   26.8200   36.9800 N   0  0  0  0  0  0  0  0  0  0  0  0
   28.4700   27.4000   37.3100 N   0  0  0  0  0  0  0  0  0  0  0  0
   29.4000   27.6300   36.3700 C   0  0  0  0  0  0  0  0  0  0  0  0
   30.6600   28.0500   36.8000 C   0  0  0  0  0  0  0  0  0  0  0  0
   31.5700   28.3600   35.7800 C   0  0  0  0  0  0  0  0  0  0  0  0
   31.3700   28.1000   34.4300 C   0  0  0  0  0  0  0  0  0  0  0  0
   30.1200   27.5900   34.0500 C   0  0  0  0  0  0  0  0  0  0  0  0
   29.1500   27.3400   35.0300 C   0  0  0  0  0  0  0  0  0  0  0  0
   27.8800   26.8900   34.6600 C   0  0  0  0  0  0  0  0  0  0  0  0
   27.4800   26.6100   33.3700 N   0  0  0  0  0  0  0  0  0  0  0  0
   30.9650   28.2946   38.1835 N   0  0  0  0  0  0  0  0  0  0  0  0
   31.2891   29.6593   38.6233 C   0  0  0  0  0  0  0  0  0  0  0  0
   31.5321   29.7120   40.1344 C   0  0  0  0  0  0  0  0  0  0  0  0
   30.4957   28.9348   40.8302 N   0  0  0  0  0  0  0  0  0  0  0  0
   29.7984   29.4656   41.9732 C   0  0  0  0  0  0  0  0  0  0  0  0
   29.3512   30.7981   41.9988 C   0  0  0  0  0  0  0  0  0  0  0  0
   28.6600   31.2699   43.1172 C   0  0  0  0  0  0  0  0  0  0  0  0
   28.2223   32.5526   43.1538 F   0  0  0  0  0  0  0  0  0  0  0  0
   28.4103   30.4155   44.1918 C   0  0  0  0  0  0  0  0  0  0  0  0
   28.8511   29.0930   44.1279 C   0  0  0  0  0  0  0  0  0  0  0  0
   29.5232   28.6515   43.0316 N   0  0  0  0  0  0  0  0  0  0  0  0
   30.2150   27.5539   40.4061 C   0  0  0  0  0  0  0  0  0  0  0  0
   30.9934   27.1797   39.1383 C   0  0  0  0  0  0  0  0  0  0  0  0
  1  2  1  0
  2  3  2  0
  2  4  1  0
  4  5  2  0
  5  6  1  0
  6  7  2  0
  7  8  1  0
  8  9  2  0
  9 10  1  0
 10 11  2  0
 11 12  1  0
 12 13  2  0
 13 14  1  0
  8 15  1  0
 15 16  1  0
 16 17  1  0
 17 18  1  0
 18 19  1  0
 19 20  2  0
 20 21  1  0
 21 22  1  0
 21 23  2  0
 23 24  1  0
 24 25  2  0
 18 26  1  0
 26 27  1  0
 13  4  1  0
 27 15  1  0
 12  7  1  0
 25 19  1  0
M  END
>  <AAScore>  (1) 
104.84001984721344

>  <RootName>  (1) 
./4ZLY/04_DeltaGEst/trajectory_01/rank_01/lead_0129

$$$$
