confid_15
     RDKit          3D

 27 31  0  0  0  0  0  0  0  0999 V2000
   25.3300   26.2600   34.7600 N   0  0  0  0  0  0  0  0  0  0  0  0
   26.1200   25.9200   33.6900 C   0  0  0  0  0  0  0  0  0  0  0  0
   25.6300   25.1100   32.9400 O   0  0  0  0  0  0  0  0  0  0  0  0
   27.5200   26.3800   33.4600 C   0  0  0  0  0  0  0  0  0  0  0  0
   28.1600   26.6300   34.6100 N   0  0  0  0  0  0  0  0  0  0  0  0
   29.4800   26.8500   34.5700 N   0  0  0  0  0  0  0  0  0  0  0  0
   30.1900   26.7800   33.4400 C   0  0  0  0  0  0  0  0  0  0  0  0
   31.5600   27.0500   33.5000 C   0  0  0  0  0  0  0  0  0  0  0  0
   32.2700   27.2400   32.3100 C   0  0  0  0  0  0  0  0  0  0  0  0
   31.6100   27.2500   31.0800 C   0  0  0  0  0  0  0  0  0  0  0  0
   30.2700   26.8700   31.0600 C   0  0  0  0  0  0  0  0  0  0  0  0
   29.5100   26.6900   32.2300 C   0  0  0  0  0  0  0  0  0  0  0  0
   28.1400   26.4100   32.2000 C   0  0  0  0  0  0  0  0  0  0  0  0
   27.4300   26.1300   31.0500 N   0  0  0  0  0  0  0  0  0  0  0  0
   23.8938   26.1945   34.7832 C   0  0  0  0  0  0  0  0  0  0  0  0
   23.1888   26.2322   35.9402 N   0  0  0  0  0  0  0  0  0  0  0  0
   21.9114   26.1848   35.5184 C   0  0  0  0  0  0  0  0  0  0  0  0
   20.6862   26.2859   36.3722 C   0  0  0  0  0  0  0  0  0  0  0  0
   19.4842   25.8153   35.6374 N   0  0  0  0  0  0  0  0  0  0  0  0
   19.3974   24.3369   35.6138 C   0  0  0  0  0  0  0  0  0  0  0  0
   17.9914   23.8743   35.1945 C   0  0  0  0  0  0  0  0  0  0  0  0
   16.9160   24.0427   36.2565 C   0  0  0  0  0  0  0  0  0  0  0  0
   17.4460   22.6559   35.9265 C   0  0  0  0  0  0  0  0  0  0  0  0
   19.3902   26.4366   34.2855 C   0  0  0  0  0  0  0  0  0  0  0  0
   20.5956   26.1107   33.3699 C   0  0  0  0  0  0  0  0  0  0  0  0
   21.8641   26.1707   34.1568 C   0  0  0  0  0  0  0  0  0  0  0  0
   23.1142   26.1629   33.6750 N   0  0  0  0  0  0  0  0  0  0  0  0
  1  2  1  0
  2  3  2  0
  2  4  1  0
  4  5  2  0
  5  6  1  0
  6  7  2  0
  7  8  1  0
  8  9  2  0
  9 10  1  0
 10 11  2  0
 11 12  1  0
 12 13  2  0
 13 14  1  0
  1 15  1  0
 15 16  2  0
 16 17  1  0
 17 18  1  0
 18 19  1  0
 19 20  1  0
 20 21  1  0
 21 22  1  0
 22 23  1  0
 19 24  1  0
 24 25  1  0
 25 26  1  0
 26 27  1  0
 13  4  1  0
 27 15  1  0
 12  7  1  0
 26 17  2  0
 23 21  1  0
M  END
>  <AAScore>  (1) 
3559.6296766837136

>  <RootName>  (1) 
./4ZLY/04_DeltaGEst/trajectory_03/rank_00/lead_0027

$$$$
