confid_14
     RDKit          3D

 28 31  0  0  0  0  0  0  0  0999 V2000
   24.6900   26.1200   35.5300 N   0  0  0  0  0  0  0  0  0  0  0  0
   25.6600   25.6700   34.6600 C   0  0  0  0  0  0  0  0  0  0  0  0
   25.2400   25.0100   33.7200 O   0  0  0  0  0  0  0  0  0  0  0  0
   27.0300   26.2200   34.8800 C   0  0  0  0  0  0  0  0  0  0  0  0
   27.3500   26.7300   36.0700 N   0  0  0  0  0  0  0  0  0  0  0  0
   28.5700   27.1800   36.3300 N   0  0  0  0  0  0  0  0  0  0  0  0
   29.5300   27.1100   35.3900 C   0  0  0  0  0  0  0  0  0  0  0  0
   30.8300   27.5700   35.6500 C   0  0  0  0  0  0  0  0  0  0  0  0
   31.8500   27.5400   34.6900 C   0  0  0  0  0  0  0  0  0  0  0  0
   31.5100   27.1200   33.4000 C   0  0  0  0  0  0  0  0  0  0  0  0
   30.2200   26.6300   33.1100 C   0  0  0  0  0  0  0  0  0  0  0  0
   29.2400   26.6600   34.1000 C   0  0  0  0  0  0  0  0  0  0  0  0
   27.9300   26.2600   33.8100 C   0  0  0  0  0  0  0  0  0  0  0  0
   27.5200   25.7100   32.6100 N   0  0  0  0  0  0  0  0  0  0  0  0
   23.2831   26.1611   35.2082 C   0  0  0  0  0  0  0  0  0  0  0  0
   22.9085   26.4591   33.9400 N   0  0  0  0  0  0  0  0  0  0  0  0
   21.6143   26.5710   33.5700 C   0  0  0  0  0  0  0  0  0  0  0  0
   20.5819   26.4149   34.5050 C   0  0  0  0  0  0  0  0  0  0  0  0
   19.1719   26.6199   34.0020 C   0  0  0  0  0  0  0  0  0  0  0  0
   18.2726   25.5087   34.4481 C   0  0  0  0  0  0  0  0  0  0  0  0
   17.9497   24.6268   33.6674 O   0  0  0  0  0  0  0  0  0  0  0  0
   17.7793   25.4753   35.8577 C   0  0  0  0  0  0  0  0  0  0  0  0
   18.5171   26.4641   36.6714 N   0  0  0  0  0  0  0  0  0  0  0  0
   17.7714   26.7216   37.9157 C   0  0  0  0  0  0  0  0  0  0  0  0
   19.8798   25.9765   36.9889 C   0  0  0  0  0  0  0  0  0  0  0  0
   20.9171   26.1329   35.8663 C   0  0  0  0  0  0  0  0  0  0  0  0
   22.2953   25.9441   36.1975 C   0  0  0  0  0  0  0  0  0  0  0  0
   22.7294   25.5495   37.5965 C   0  0  0  0  0  0  0  0  0  0  0  0
  1  2  1  0
  2  3  2  0
  2  4  1  0
  4  5  2  0
  5  6  1  0
  6  7  2  0
  7  8  1  0
  8  9  2  0
  9 10  1  0
 10 11  2  0
 11 12  1  0
 12 13  2  0
 13 14  1  0
  1 15  1  0
 15 16  2  0
 16 17  1  0
 17 18  2  0
 18 19  1  0
 19 20  1  0
 20 21  2  0
 20 22  1  0
 22 23  1  0
 23 24  1  0
 23 25  1  0
 25 26  1  0
 26 27  2  0
 27 28  1  0
 13  4  1  0
 27 15  1  0
 12  7  1  0
 26 18  1  0
M  END
>  <AAScore>  (1) 
1705.7857453891363

>  <RootName>  (1) 
./4ZLY/04_DeltaGEst/trajectory_02/rank_00/lead_0017

$$$$
