confid_8
     RDKit          3D

 30 32  0  0  0  0  0  0  0  0999 V2000
   24.5700   26.8800   35.5900 N   0  0  0  0  0  0  0  0  0  0  0  0
   25.5000   26.4000   34.6900 C   0  0  0  0  0  0  0  0  0  0  0  0
   25.1700   25.5200   33.9100 O   0  0  0  0  0  0  0  0  0  0  0  0
   26.8400   27.0200   34.7400 C   0  0  0  0  0  0  0  0  0  0  0  0
   27.3800   27.2800   35.9400 N   0  0  0  0  0  0  0  0  0  0  0  0
   28.6200   27.7400   36.0300 N   0  0  0  0  0  0  0  0  0  0  0  0
   29.3800   28.0000   34.9600 C   0  0  0  0  0  0  0  0  0  0  0  0
   30.6700   28.5000   35.1300 C   0  0  0  0  0  0  0  0  0  0  0  0
   31.5400   28.6100   34.0300 C   0  0  0  0  0  0  0  0  0  0  0  0
   31.0900   28.2200   32.7700 C   0  0  0  0  0  0  0  0  0  0  0  0
   29.8000   27.7000   32.6000 C   0  0  0  0  0  0  0  0  0  0  0  0
   28.9600   27.5500   33.7100 C   0  0  0  0  0  0  0  0  0  0  0  0
   27.6600   27.0300   33.5900 C   0  0  0  0  0  0  0  0  0  0  0  0
   27.1600   26.7400   32.3400 N   0  0  0  0  0  0  0  0  0  0  0  0
   33.1971   29.1911   34.2555 S   0  0  0  0  0  6  0  0  0  0  0  0
   34.0370   28.7472   33.0905 O   0  0  0  0  0  0  0  0  0  0  0  0
   33.7464   28.5236   35.4853 O   0  0  0  0  0  0  0  0  0  0  0  0
   33.3931   30.9825   34.4669 C   0  0  2  0  0  0  0  0  0  0  0  0
   32.6797   31.5009   35.7201 C   0  0  0  0  0  0  0  0  0  0  0  0
   32.0360   32.7881   35.4010 N   0  0  0  0  0  0  0  0  0  0  0  0
   31.8052   32.7694   33.9446 C   0  0  2  0  0  0  0  0  0  0  0  0
   30.3876   32.2394   33.6794 C   0  0  0  0  0  0  0  0  0  0  0  0
   32.9310   31.9160   33.3325 C   0  0  2  0  0  0  0  0  0  0  0  0
   32.6237   31.3004   31.9607 C   0  0  0  0  0  0  0  0  0  0  0  0
   32.8671   33.9409   35.8211 C   0  0  0  0  0  0  0  0  0  0  0  0
   32.0169   35.2141   35.9765 C   0  0  0  0  0  0  0  0  0  0  0  0
   30.9760   35.1090   37.0975 C   0  0  0  0  0  0  0  0  0  0  0  0
   30.3158   36.3179   37.2196 F   0  0  0  0  0  0  0  0  0  0  0  0
   31.5915   34.8157   38.3015 F   0  0  0  0  0  0  0  0  0  0  0  0
   30.0473   34.1257   36.8076 F   0  0  0  0  0  0  0  0  0  0  0  0
  1  2  1  0
  2  3  2  0
  2  4  1  0
  4  5  2  0
  5  6  1  0
  6  7  2  0
  7  8  1  0
  8  9  2  0
  9 10  1  0
 10 11  2  0
 11 12  1  0
 12 13  2  0
 13 14  1  0
  9 15  1  0
 15 16  2  0
 15 17  2  0
 18 15  1  6
 18 19  1  0
 19 20  1  0
 20 21  1  0
 21 22  1  1
 21 23  1  0
 23 24  1  6
 20 25  1  0
 25 26  1  0
 26 27  1  0
 27 28  1  0
 27 29  1  0
 27 30  1  0
 13  4  1  0
 23 18  1  0
 12  7  1  0
M  END
>  <AAScore>  (1) 
94.19202822279588

>  <RootName>  (1) 
./4ZLY/04_DeltaGEst/trajectory_05/rank_01/lead_0025

$$$$
