confid_2
     RDKit          3D

 29 33  0  0  0  0  0  0  0  0999 V2000
   25.3300   26.2600   34.7600 N   0  0  0  0  0  0  0  0  0  0  0  0
   26.1200   25.9200   33.6900 C   0  0  0  0  0  0  0  0  0  0  0  0
   25.6300   25.1100   32.9400 O   0  0  0  0  0  0  0  0  0  0  0  0
   27.5200   26.3800   33.4600 C   0  0  0  0  0  0  0  0  0  0  0  0
   28.1600   26.6300   34.6100 N   0  0  0  0  0  0  0  0  0  0  0  0
   29.4800   26.8500   34.5700 N   0  0  0  0  0  0  0  0  0  0  0  0
   30.1900   26.7800   33.4400 C   0  0  0  0  0  0  0  0  0  0  0  0
   31.5600   27.0500   33.5000 C   0  0  0  0  0  0  0  0  0  0  0  0
   32.2700   27.2400   32.3100 C   0  0  0  0  0  0  0  0  0  0  0  0
   31.6100   27.2500   31.0800 C   0  0  0  0  0  0  0  0  0  0  0  0
   30.2700   26.8700   31.0600 C   0  0  0  0  0  0  0  0  0  0  0  0
   29.5100   26.6900   32.2300 C   0  0  0  0  0  0  0  0  0  0  0  0
   28.1400   26.4100   32.2000 C   0  0  0  0  0  0  0  0  0  0  0  0
   27.4300   26.1300   31.0500 N   0  0  0  0  0  0  0  0  0  0  0  0
   26.4874   27.1322   30.5372 C   0  0  0  0  0  0  0  0  0  0  0  0
   26.6045   27.2250   29.0190 C   0  0  0  0  0  0  0  0  0  0  0  0
   26.4212   25.8960   28.4219 N   0  0  0  0  0  0  0  0  0  0  0  0
   25.5360   25.7297   27.2636 C   0  0  0  0  0  0  0  0  0  0  0  0
   27.0984   24.7658   29.0214 C   0  0  0  0  0  0  0  0  0  0  0  0
   27.2604   23.5532   28.3256 C   0  0  0  0  0  0  0  0  0  0  0  0
   27.9333   22.4719   28.9105 C   0  0  0  0  0  0  0  0  0  0  0  0
   28.0376   21.1682   28.1510 C   0  0  0  0  0  0  0  0  0  0  0  0
   29.1019   20.2839   28.6647 N   0  0  0  0  0  0  0  0  0  0  0  0
   30.4396   20.7172   28.2246 C   0  0  0  0  0  0  0  0  0  0  0  0
   29.0086   20.1254   30.1287 C   0  0  0  0  0  0  0  0  0  0  0  0
   29.1790   21.4565   30.8759 C   0  0  0  0  0  0  0  0  0  0  0  0
   28.4156   22.5818   30.2276 C   0  0  0  0  0  0  0  0  0  0  0  0
   28.2631   23.7879   30.9223 C   0  0  0  0  0  0  0  0  0  0  0  0
   27.6075   24.8848   30.3320 C   0  0  0  0  0  0  0  0  0  0  0  0
  1  2  1  0
  2  3  2  0
  2  4  1  0
  4  5  2  0
  5  6  1  0
  6  7  2  0
  7  8  1  0
  8  9  2  0
  9 10  1  0
 10 11  2  0
 11 12  1  0
 12 13  2  0
 13 14  1  0
 14 15  1  0
 15 16  1  0
 16 17  1  0
 17 18  1  0
 17 19  1  0
 19 20  2  0
 20 21  1  0
 21 22  1  0
 22 23  1  0
 23 24  1  0
 23 25  1  0
 25 26  1  0
 26 27  1  0
 27 28  1  0
 28 29  2  0
 13  4  1  0
 29 14  1  0
 12  7  1  0
 29 19  1  0
 27 21  2  0
M  END
>  <AAScore>  (1) 
104.90179129766618

>  <RootName>  (1) 
./4ZLY/04_DeltaGEst/trajectory_03/rank_01/lead_0307

$$$$
