confid_13
     RDKit          3D

 29 32  0  0  0  0  0  0  0  0999 V2000
   24.2000   26.2400   35.6900 N   0  0  0  0  0  0  0  0  0  0  0  0
   24.8500   26.2800   34.4800 C   0  0  0  0  0  0  0  0  0  0  0  0
   24.3100   25.7400   33.5400 O   0  0  0  0  0  0  0  0  0  0  0  0
   26.1800   26.9700   34.4700 C   0  0  0  0  0  0  0  0  0  0  0  0
   26.6500   27.6000   35.5500 N   0  0  0  0  0  0  0  0  0  0  0  0
   27.7900   28.2700   35.6200 N   0  0  0  0  0  0  0  0  0  0  0  0
   28.5400   28.3000   34.5100 C   0  0  0  0  0  0  0  0  0  0  0  0
   29.7700   28.9400   34.5600 C   0  0  0  0  0  0  0  0  0  0  0  0
   30.7000   28.8900   33.5000 C   0  0  0  0  0  0  0  0  0  0  0  0
   30.3700   28.1400   32.3700 C   0  0  0  0  0  0  0  0  0  0  0  0
   29.1200   27.5200   32.2800 C   0  0  0  0  0  0  0  0  0  0  0  0
   28.2100   27.6100   33.3300 C   0  0  0  0  0  0  0  0  0  0  0  0
   26.9700   26.9700   33.3100 C   0  0  0  0  0  0  0  0  0  0  0  0
   26.5300   26.2400   32.2200 N   0  0  0  0  0  0  0  0  0  0  0  0
   30.1422   29.6856   35.7380 N   0  0  0  0  0  0  0  0  0  0  0  0
   29.2864   30.7613   36.2483 C   0  0  0  0  0  0  0  0  0  0  0  0
   30.1524   31.9423   36.7105 C   0  0  0  0  0  0  0  0  0  0  0  0
   31.3059   31.5546   37.5735 N   0  0  0  0  0  0  0  0  0  0  0  0
   31.3383   32.2854   38.8640 C   0  0  0  0  0  0  0  0  0  0  0  0
   32.1684   33.5859   38.7795 C   0  0  0  0  0  0  0  0  0  0  0  0
   33.5790   33.3348   38.2071 C   0  0  0  0  0  0  0  0  0  0  0  0
   34.4118   34.6256   38.2217 C   0  0  0  0  0  0  0  0  0  0  0  0
   33.7043   35.7639   37.4670 C   0  0  0  0  0  0  0  0  0  0  0  0
   34.4401   36.9278   37.6138 F   0  0  0  0  0  0  0  0  0  0  0  0
   33.6366   35.4574   36.1165 F   0  0  0  0  0  0  0  0  0  0  0  0
   32.2857   35.9932   38.0160 C   0  0  0  0  0  0  0  0  0  0  0  0
   31.4590   34.6996   37.9841 C   0  0  0  0  0  0  0  0  0  0  0  0
   31.4465   30.0979   37.7894 C   0  0  0  0  0  0  0  0  0  0  0  0
   31.3670   29.3363   36.4644 C   0  0  0  0  0  0  0  0  0  0  0  0
  1  2  1  0
  2  3  2  0
  2  4  1  0
  4  5  2  0
  5  6  1  0
  6  7  2  0
  7  8  1  0
  8  9  2  0
  9 10  1  0
 10 11  2  0
 11 12  1  0
 12 13  2  0
 13 14  1  0
  8 15  1  0
 15 16  1  0
 16 17  1  0
 17 18  1  0
 18 19  1  0
 19 20  1  0
 20 21  1  0
 21 22  1  0
 22 23  1  0
 23 24  1  0
 23 25  1  0
 23 26  1  0
 26 27  1  0
 18 28  1  0
 28 29  1  0
 13  4  1  0
 29 15  1  0
 12  7  1  0
 27 20  1  0
M  END
>  <AAScore>  (1) 
-8.43869013484399

>  <RootName>  (1) 
./4ZLY/04_DeltaGEst/trajectory_04/rank_01/lead_0215

$$$$
