confid_11
     RDKit          3D

 27 30  0  0  0  0  0  0  0  0999 V2000
   25.3300   26.2600   34.7600 N   0  0  0  0  0  0  0  0  0  0  0  0
   26.1200   25.9200   33.6900 C   0  0  0  0  0  0  0  0  0  0  0  0
   25.6300   25.1100   32.9400 O   0  0  0  0  0  0  0  0  0  0  0  0
   27.5200   26.3800   33.4600 C   0  0  0  0  0  0  0  0  0  0  0  0
   28.1600   26.6300   34.6100 N   0  0  0  0  0  0  0  0  0  0  0  0
   29.4800   26.8500   34.5700 N   0  0  0  0  0  0  0  0  0  0  0  0
   30.1900   26.7800   33.4400 C   0  0  0  0  0  0  0  0  0  0  0  0
   31.5600   27.0500   33.5000 C   0  0  0  0  0  0  0  0  0  0  0  0
   32.2700   27.2400   32.3100 C   0  0  0  0  0  0  0  0  0  0  0  0
   31.6100   27.2500   31.0800 C   0  0  0  0  0  0  0  0  0  0  0  0
   30.2700   26.8700   31.0600 C   0  0  0  0  0  0  0  0  0  0  0  0
   29.5100   26.6900   32.2300 C   0  0  0  0  0  0  0  0  0  0  0  0
   28.1400   26.4100   32.2000 C   0  0  0  0  0  0  0  0  0  0  0  0
   27.4300   26.1300   31.0500 N   0  0  0  0  0  0  0  0  0  0  0  0
   23.9356   25.9401   34.9359 C   0  0  0  0  0  0  0  0  0  0  0  0
   23.2195   25.3254   33.9549 N   0  0  0  0  0  0  0  0  0  0  0  0
   21.9022   25.0406   34.1174 C   0  0  0  0  0  0  0  0  0  0  0  0
   21.2505   25.3893   35.3046 C   0  0  0  0  0  0  0  0  0  0  0  0
   19.8071   25.0114   35.5157 C   0  0  0  0  0  0  0  0  0  0  0  0
   19.1972   25.7063   36.6726 N   0  0  0  0  0  0  0  0  0  0  0  0
   17.8154   25.2210   36.8676 C   0  0  0  0  0  0  0  0  0  0  0  0
   20.0524   25.6864   37.9026 C   0  0  0  0  0  0  0  0  0  0  0  0
   19.3597   26.4310   39.0702 C   0  0  0  0  0  0  0  0  0  0  0  0
   20.3962   24.2479   38.3782 C   0  0  0  0  0  0  0  0  0  0  0  0
   21.3606   26.4566   37.5897 C   0  0  0  0  0  0  0  0  0  0  0  0
   22.0043   26.0042   36.3134 C   0  0  0  0  0  0  0  0  0  0  0  0
   23.3181   26.2805   36.0984 N   0  0  0  0  0  0  0  0  0  0  0  0
  1  2  1  0
  2  3  2  0
  2  4  1  0
  4  5  2  0
  5  6  1  0
  6  7  2  0
  7  8  1  0
  8  9  2  0
  9 10  1  0
 10 11  2  0
 11 12  1  0
 12 13  2  0
 13 14  1  0
  1 15  1  0
 15 16  2  0
 16 17  1  0
 17 18  2  0
 18 19  1  0
 19 20  1  0
 20 21  1  0
 20 22  1  0
 22 23  1  0
 22 24  1  0
 22 25  1  0
 25 26  1  0
 26 27  2  0
 13  4  1  0
 27 15  1  0
 12  7  1  0
 26 18  1  0
M  END
>  <AAScore>  (1) 
11521.886831940315

>  <RootName>  (1) 
./4ZLY/04_DeltaGEst/trajectory_03/rank_00/lead_0397

$$$$
