confid_8
     RDKit          3D

 29 31  0  0  0  0  0  0  0  0999 V2000
   24.5700   26.8800   35.5900 N   0  0  0  0  0  0  0  0  0  0  0  0
   25.5000   26.4000   34.6900 C   0  0  0  0  0  0  0  0  0  0  0  0
   25.1700   25.5200   33.9100 O   0  0  0  0  0  0  0  0  0  0  0  0
   26.8400   27.0200   34.7400 C   0  0  0  0  0  0  0  0  0  0  0  0
   27.3800   27.2800   35.9400 N   0  0  0  0  0  0  0  0  0  0  0  0
   28.6200   27.7400   36.0300 N   0  0  0  0  0  0  0  0  0  0  0  0
   29.3800   28.0000   34.9600 C   0  0  0  0  0  0  0  0  0  0  0  0
   30.6700   28.5000   35.1300 C   0  0  0  0  0  0  0  0  0  0  0  0
   31.5400   28.6100   34.0300 C   0  0  0  0  0  0  0  0  0  0  0  0
   31.0900   28.2200   32.7700 C   0  0  0  0  0  0  0  0  0  0  0  0
   29.8000   27.7000   32.6000 C   0  0  0  0  0  0  0  0  0  0  0  0
   28.9600   27.5500   33.7100 C   0  0  0  0  0  0  0  0  0  0  0  0
   27.6600   27.0300   33.5900 C   0  0  0  0  0  0  0  0  0  0  0  0
   27.1600   26.7400   32.3400 N   0  0  0  0  0  0  0  0  0  0  0  0
   33.1598   29.2852   34.2302 S   0  0  0  0  0  6  0  0  0  0  0  0
   33.3590   30.2881   33.1273 O   0  0  0  0  0  0  0  0  0  0  0  0
   33.1975   30.0342   35.5343 O   0  0  0  0  0  0  0  0  0  0  0  0
   34.5386   28.0830   34.1649 C   0  0  2  0  0  0  0  0  0  0  0  0
   34.6443   27.2711   35.5299 C   0  0  0  0  0  0  0  0  0  0  0  0
   34.0460   25.8341   35.7668 C   0  0  0  0  0  0  0  0  0  0  0  0
   34.6490   24.7629   34.8279 C   0  0  0  0  0  0  0  0  0  0  0  0
   34.4152   25.4263   37.2168 C   0  0  0  0  0  0  0  0  0  0  0  0
   32.5098   25.8137   35.6740 C   0  0  0  0  0  0  0  0  0  0  0  0
   35.7959   28.8657   33.9196 N   0  0  0  0  0  0  0  0  0  0  0  0
   36.1390   29.8874   34.9237 C   0  0  0  0  0  0  0  0  0  0  0  0
   37.6420   30.0628   34.8769 C   0  0  0  0  0  0  0  0  0  0  0  0
   38.1599   28.7106   34.4504 C   0  0  0  0  0  0  0  0  0  0  0  0
   37.0219   28.0836   33.6579 C   0  0  0  0  0  0  0  0  0  0  0  0
   34.2961   27.2101   32.9123 C   0  0  0  0  0  0  0  0  0  0  0  0
  1  2  1  0
  2  3  2  0
  2  4  1  0
  4  5  2  0
  5  6  1  0
  6  7  2  0
  7  8  1  0
  8  9  2  0
  9 10  1  0
 10 11  2  0
 11 12  1  0
 12 13  2  0
 13 14  1  0
  9 15  1  0
 15 16  2  0
 15 17  2  0
 15 18  1  0
 18 19  1  0
 19 20  1  0
 20 21  1  0
 20 22  1  0
 20 23  1  0
 18 24  1  0
 24 25  1  0
 25 26  1  0
 26 27  1  0
 27 28  1  0
 18 29  1  6
 13  4  1  0
 28 24  1  0
 12  7  1  0
M  END
>  <AAScore>  (1) 
195.3103955616687

>  <RootName>  (1) 
./4ZLY/04_DeltaGEst/trajectory_05/rank_01/lead_0482

$$$$
