confid_18
     RDKit          3D

 27 29  0  0  0  0  0  0  0  0999 V2000
   24.5700   26.8800   35.5900 N   0  0  0  0  0  0  0  0  0  0  0  0
   25.5000   26.4000   34.6900 C   0  0  0  0  0  0  0  0  0  0  0  0
   25.1700   25.5200   33.9100 O   0  0  0  0  0  0  0  0  0  0  0  0
   26.8400   27.0200   34.7400 C   0  0  0  0  0  0  0  0  0  0  0  0
   27.3800   27.2800   35.9400 N   0  0  0  0  0  0  0  0  0  0  0  0
   28.6200   27.7400   36.0300 N   0  0  0  0  0  0  0  0  0  0  0  0
   29.3800   28.0000   34.9600 C   0  0  0  0  0  0  0  0  0  0  0  0
   30.6700   28.5000   35.1300 C   0  0  0  0  0  0  0  0  0  0  0  0
   31.5400   28.6100   34.0300 C   0  0  0  0  0  0  0  0  0  0  0  0
   31.0900   28.2200   32.7700 C   0  0  0  0  0  0  0  0  0  0  0  0
   29.8000   27.7000   32.6000 C   0  0  0  0  0  0  0  0  0  0  0  0
   28.9600   27.5500   33.7100 C   0  0  0  0  0  0  0  0  0  0  0  0
   27.6600   27.0300   33.5900 C   0  0  0  0  0  0  0  0  0  0  0  0
   27.1600   26.7400   32.3400 N   0  0  0  0  0  0  0  0  0  0  0  0
   33.2181   29.0869   34.2781 S   0  0  0  0  0  6  0  0  0  0  0  0
   33.2748   30.2618   35.2134 O   0  0  0  0  0  0  0  0  0  0  0  0
   33.8426   29.4816   32.9687 O   0  0  0  0  0  0  0  0  0  0  0  0
   34.1139   27.7070   34.9795 C   0  0  0  0  0  0  0  0  0  0  0  0
   33.4469   26.4449   34.6088 N   0  0  0  0  0  0  0  0  0  0  0  0
   33.8783   25.9618   33.2825 C   0  0  0  0  0  0  0  0  0  0  0  0
   32.9290   24.8508   32.7876 C   0  0  0  0  0  0  0  0  0  0  0  0
   32.1739   24.1631   33.9533 C   0  0  0  0  0  0  0  0  0  0  0  0
   31.4935   22.8313   33.5089 C   0  0  0  0  0  0  0  0  0  0  0  0
   32.4705   21.6506   33.3681 C   0  0  0  0  0  0  0  0  0  0  0  0
   30.3392   22.4500   34.4494 C   0  0  0  0  0  0  0  0  0  0  0  0
   33.1068   24.0236   35.1781 C   0  0  0  0  0  0  0  0  0  0  0  0
   33.6472   25.3992   35.6357 C   0  0  0  0  0  0  0  0  0  0  0  0
  1  2  1  0
  2  3  2  0
  2  4  1  0
  4  5  2  0
  5  6  1  0
  6  7  2  0
  7  8  1  0
  8  9  2  0
  9 10  1  0
 10 11  2  0
 11 12  1  0
 12 13  2  0
 13 14  1  0
  9 15  1  0
 15 16  2  0
 15 17  2  0
 15 18  1  0
 18 19  1  0
 19 20  1  0
 20 21  1  0
 21 22  1  0
 22 23  1  0
 23 24  1  0
 23 25  1  0
 22 26  1  0
 26 27  1  0
 13  4  1  0
 27 19  1  0
 12  7  1  0
M  END
>  <AAScore>  (1) 
1111.9594090704886

>  <RootName>  (1) 
./4ZLY/04_DeltaGEst/trajectory_05/rank_01/lead_0152

$$$$
