confid_14
     RDKit          3D

 27 29  0  0  0  0  0  0  0  0999 V2000
   24.5700   26.8800   35.5900 N   0  0  0  0  0  0  0  0  0  0  0  0
   25.5000   26.4000   34.6900 C   0  0  0  0  0  0  0  0  0  0  0  0
   25.1700   25.5200   33.9100 O   0  0  0  0  0  0  0  0  0  0  0  0
   26.8400   27.0200   34.7400 C   0  0  0  0  0  0  0  0  0  0  0  0
   27.3800   27.2800   35.9400 N   0  0  0  0  0  0  0  0  0  0  0  0
   28.6200   27.7400   36.0300 N   0  0  0  0  0  0  0  0  0  0  0  0
   29.3800   28.0000   34.9600 C   0  0  0  0  0  0  0  0  0  0  0  0
   30.6700   28.5000   35.1300 C   0  0  0  0  0  0  0  0  0  0  0  0
   31.5400   28.6100   34.0300 C   0  0  0  0  0  0  0  0  0  0  0  0
   31.0900   28.2200   32.7700 C   0  0  0  0  0  0  0  0  0  0  0  0
   29.8000   27.7000   32.6000 C   0  0  0  0  0  0  0  0  0  0  0  0
   28.9600   27.5500   33.7100 C   0  0  0  0  0  0  0  0  0  0  0  0
   27.6600   27.0300   33.5900 C   0  0  0  0  0  0  0  0  0  0  0  0
   27.1600   26.7400   32.3400 N   0  0  0  0  0  0  0  0  0  0  0  0
   33.1600   29.2650   34.2509 S   0  0  0  0  0  6  0  0  0  0  0  0
   33.7922   28.6087   35.4465 O   0  0  0  0  0  0  0  0  0  0  0  0
   34.0027   28.9728   33.0401 O   0  0  0  0  0  0  0  0  0  0  0  0
   33.0704   31.0400   34.5101 C   0  0  2  0  0  0  0  0  0  0  0  0
   32.4999   31.7536   33.2665 C   0  0  0  0  0  0  0  0  0  0  0  0
   33.5768   32.0672   32.3058 N   0  0  0  0  0  0  0  0  0  0  0  0
   34.5414   33.0736   32.8400 C   0  0  2  0  0  0  0  0  0  0  0  0
   35.9335   32.8429   32.1907 C   0  0  0  0  0  0  0  0  0  0  0  0
   36.8018   34.1135   32.1437 C   0  0  0  0  0  0  0  0  0  0  0  0
   36.4057   35.0469   30.9991 C   0  0  0  0  0  0  0  0  0  0  0  0
   34.6582   33.0191   34.3921 C   0  0  0  0  0  0  0  0  0  0  0  0
   34.4548   31.5940   34.9110 C   0  0  0  0  0  0  0  0  0  0  0  0
   32.9769   32.5318   31.0406 C   0  0  0  0  0  0  0  0  0  0  0  0
  1  2  1  0
  2  3  2  0
  2  4  1  0
  4  5  2  0
  5  6  1  0
  6  7  2  0
  7  8  1  0
  8  9  2  0
  9 10  1  0
 10 11  2  0
 11 12  1  0
 12 13  2  0
 13 14  1  0
  9 15  1  0
 15 16  2  0
 15 17  2  0
 18 15  1  6
 18 19  1  0
 19 20  1  0
 20 21  1  0
 21 22  1  6
 22 23  1  0
 23 24  1  0
 21 25  1  0
 25 26  1  0
 20 27  1  0
 13  4  1  0
 26 18  1  0
 12  7  1  0
M  END
>  <AAScore>  (1) 
-5.533167075862273

>  <RootName>  (1) 
./4ZLY/04_DeltaGEst/trajectory_05/rank_01/lead_0250

$$$$
