confid_15
     RDKit          3D

 29 32  0  0  0  0  0  0  0  0999 V2000
   24.6900   26.1200   35.5300 N   0  0  0  0  0  0  0  0  0  0  0  0
   25.6600   25.6700   34.6600 C   0  0  0  0  0  0  0  0  0  0  0  0
   25.2400   25.0100   33.7200 O   0  0  0  0  0  0  0  0  0  0  0  0
   27.0300   26.2200   34.8800 C   0  0  0  0  0  0  0  0  0  0  0  0
   27.3500   26.7300   36.0700 N   0  0  0  0  0  0  0  0  0  0  0  0
   28.5700   27.1800   36.3300 N   0  0  0  0  0  0  0  0  0  0  0  0
   29.5300   27.1100   35.3900 C   0  0  0  0  0  0  0  0  0  0  0  0
   30.8300   27.5700   35.6500 C   0  0  0  0  0  0  0  0  0  0  0  0
   31.8500   27.5400   34.6900 C   0  0  0  0  0  0  0  0  0  0  0  0
   31.5100   27.1200   33.4000 C   0  0  0  0  0  0  0  0  0  0  0  0
   30.2200   26.6300   33.1100 C   0  0  0  0  0  0  0  0  0  0  0  0
   29.2400   26.6600   34.1000 C   0  0  0  0  0  0  0  0  0  0  0  0
   27.9300   26.2600   33.8100 C   0  0  0  0  0  0  0  0  0  0  0  0
   27.5200   25.7100   32.6100 N   0  0  0  0  0  0  0  0  0  0  0  0
   31.1862   28.0712   37.0065 C   0  0  0  0  0  0  0  0  0  0  0  0
   32.1767   29.0031   37.3049 C   0  0  0  0  0  0  0  0  0  0  0  0
   32.1156   29.1289   38.6749 C   0  0  0  0  0  0  0  0  0  0  0  0
   32.9372   30.0263   39.5478 C   0  0  0  0  0  0  0  0  0  0  0  0
   32.5687   29.8730   40.9698 N   0  0  0  0  0  0  0  0  0  0  0  0
   31.9470   28.6188   41.4393 C   0  0  0  0  0  0  0  0  0  0  0  0
   30.7660   28.2293   40.5442 C   0  0  0  0  0  0  0  0  0  0  0  0
   31.1650   28.3119   39.1467 N   0  0  0  0  0  0  0  0  0  0  0  0
   30.5803   27.6725   38.1484 N   0  0  0  0  0  0  0  0  0  0  0  0
   33.0005   30.8524   41.9397 C   0  0  0  0  0  0  0  0  0  0  0  0
   32.3786   30.9691   43.0307 O   0  0  0  0  0  0  0  0  0  0  0  0
   34.2186   31.7123   41.7142 C   0  0  0  0  0  0  0  0  0  0  0  0
   35.5252   30.9167   41.9193 C   0  0  0  0  0  0  0  0  0  0  0  0
   36.7284   31.7459   41.4544 C   0  0  0  0  0  0  0  0  0  0  0  0
   35.7076   30.5004   43.3863 C   0  0  0  0  0  0  0  0  0  0  0  0
  1  2  1  0
  2  3  2  0
  2  4  1  0
  4  5  2  0
  5  6  1  0
  6  7  2  0
  7  8  1  0
  8  9  2  0
  9 10  1  0
 10 11  2  0
 11 12  1  0
 12 13  2  0
 13 14  1  0
  8 15  1  0
 15 16  1  0
 16 17  2  0
 17 18  1  0
 18 19  1  0
 19 20  1  0
 20 21  1  0
 21 22  1  0
 22 23  1  0
 19 24  1  0
 24 25  2  0
 24 26  1  0
 26 27  1  0
 27 28  1  0
 27 29  1  0
 13  4  1  0
 23 15  2  0
 12  7  1  0
 22 17  1  0
M  END
>  <AAScore>  (1) 
302.5339506292474

>  <RootName>  (1) 
./4ZLY/04_DeltaGEst/trajectory_02/rank_01/lead_0298

$$$$
