confid_11
     RDKit          3D

 28 31  0  0  0  0  0  0  0  0999 V2000
   25.3300   26.2600   34.7600 N   0  0  0  0  0  0  0  0  0  0  0  0
   26.1200   25.9200   33.6900 C   0  0  0  0  0  0  0  0  0  0  0  0
   25.6300   25.1100   32.9400 O   0  0  0  0  0  0  0  0  0  0  0  0
   27.5200   26.3800   33.4600 C   0  0  0  0  0  0  0  0  0  0  0  0
   28.1600   26.6300   34.6100 N   0  0  0  0  0  0  0  0  0  0  0  0
   29.4800   26.8500   34.5700 N   0  0  0  0  0  0  0  0  0  0  0  0
   30.1900   26.7800   33.4400 C   0  0  0  0  0  0  0  0  0  0  0  0
   31.5600   27.0500   33.5000 C   0  0  0  0  0  0  0  0  0  0  0  0
   32.2700   27.2400   32.3100 C   0  0  0  0  0  0  0  0  0  0  0  0
   31.6100   27.2500   31.0800 C   0  0  0  0  0  0  0  0  0  0  0  0
   30.2700   26.8700   31.0600 C   0  0  0  0  0  0  0  0  0  0  0  0
   29.5100   26.6900   32.2300 C   0  0  0  0  0  0  0  0  0  0  0  0
   28.1400   26.4100   32.2000 C   0  0  0  0  0  0  0  0  0  0  0  0
   27.4300   26.1300   31.0500 N   0  0  0  0  0  0  0  0  0  0  0  0
   24.1698   25.5296   35.2073 C   0  0  0  0  0  0  0  0  0  0  0  0
   24.0417   24.2040   34.9149 N   0  0  0  0  0  0  0  0  0  0  0  0
   23.0046   23.4556   35.3714 C   0  0  0  0  0  0  0  0  0  0  0  0
   22.0247   24.0404   36.1779 C   0  0  0  0  0  0  0  0  0  0  0  0
   20.8844   23.2447   36.7528 C   0  0  0  0  0  0  0  0  0  0  0  0
   19.6082   24.0020   36.7143 N   0  0  0  0  0  0  0  0  0  0  0  0
   18.7342   23.6396   35.5766 C   0  0  0  0  0  0  0  0  0  0  0  0
   19.3859   23.8700   34.2053 C   0  0  0  0  0  0  0  0  0  0  0  0
   19.6821   25.4723   36.9503 C   0  0  0  0  0  0  0  0  0  0  0  0
   21.0656   25.9652   37.4063 C   0  0  0  0  0  0  0  0  0  0  0  0
   22.1265   25.3925   36.5095 C   0  0  0  0  0  0  0  0  0  0  0  0
   23.2005   26.1551   36.0186 C   0  0  0  0  0  0  0  0  0  0  0  0
   23.2968   27.5122   36.3382 O   0  0  0  0  0  0  0  0  0  0  0  0
   23.0286   28.5258   35.3766 C   0  0  0  0  0  0  0  0  0  0  0  0
  1  2  1  0
  2  3  2  0
  2  4  1  0
  4  5  2  0
  5  6  1  0
  6  7  2  0
  7  8  1  0
  8  9  2  0
  9 10  1  0
 10 11  2  0
 11 12  1  0
 12 13  2  0
 13 14  1  0
  1 15  1  0
 15 16  2  0
 16 17  1  0
 17 18  2  0
 18 19  1  0
 19 20  1  0
 20 21  1  0
 21 22  1  0
 20 23  1  0
 23 24  1  0
 24 25  1  0
 25 26  2  0
 26 27  1  0
 27 28  1  0
 13  4  1  0
 26 15  1  0
 12  7  1  0
 25 18  1  0
M  END
>  <AAScore>  (1) 
16443.74750463405

>  <RootName>  (1) 
./4ZLY/04_DeltaGEst/trajectory_03/rank_00/lead_0311

$$$$
