confid_11
     RDKit          3D

 27 30  0  0  0  0  0  0  0  0999 V2000
   25.3300   26.2600   34.7600 N   0  0  0  0  0  0  0  0  0  0  0  0
   26.1200   25.9200   33.6900 C   0  0  0  0  0  0  0  0  0  0  0  0
   25.6300   25.1100   32.9400 O   0  0  0  0  0  0  0  0  0  0  0  0
   27.5200   26.3800   33.4600 C   0  0  0  0  0  0  0  0  0  0  0  0
   28.1600   26.6300   34.6100 N   0  0  0  0  0  0  0  0  0  0  0  0
   29.4800   26.8500   34.5700 N   0  0  0  0  0  0  0  0  0  0  0  0
   30.1900   26.7800   33.4400 C   0  0  0  0  0  0  0  0  0  0  0  0
   31.5600   27.0500   33.5000 C   0  0  0  0  0  0  0  0  0  0  0  0
   32.2700   27.2400   32.3100 C   0  0  0  0  0  0  0  0  0  0  0  0
   31.6100   27.2500   31.0800 C   0  0  0  0  0  0  0  0  0  0  0  0
   30.2700   26.8700   31.0600 C   0  0  0  0  0  0  0  0  0  0  0  0
   29.5100   26.6900   32.2300 C   0  0  0  0  0  0  0  0  0  0  0  0
   28.1400   26.4100   32.2000 C   0  0  0  0  0  0  0  0  0  0  0  0
   27.4300   26.1300   31.0500 N   0  0  0  0  0  0  0  0  0  0  0  0
   27.5858   24.8298   30.3861 C   0  0  0  0  0  0  0  0  0  0  0  0
   27.7830   24.9920   28.8627 C   0  0  0  0  0  0  0  0  0  0  0  0
   27.3983   26.3361   28.3636 N   0  0  0  0  0  0  0  0  0  0  0  0
   27.2175   26.3336   26.8982 C   0  0  0  0  0  0  0  0  0  0  0  0
   28.5371   26.1474   26.2050 C   0  0  0  0  0  0  0  0  0  0  0  0
   29.0132   25.0037   25.5902 C   0  0  0  0  0  0  0  0  0  0  0  0
   30.2957   25.2807   25.1661 C   0  0  0  0  0  0  0  0  0  0  0  0
   30.6200   26.5431   25.5045 N   0  0  0  0  0  0  0  0  0  0  0  0
   29.5592   27.0753   26.1416 C   0  0  0  0  0  0  0  0  0  0  0  0
   28.3275   23.7477   25.4440 C   0  0  0  0  0  0  0  0  0  0  0  0
   27.7752   22.7375   25.3277 N   0  0  0  0  0  0  0  0  0  0  0  0
   26.1817   26.8191   29.0401 C   0  0  0  0  0  0  0  0  0  0  0  0
   26.5262   27.1438   30.4941 C   0  0  0  0  0  0  0  0  0  0  0  0
  1  2  1  0
  2  3  2  0
  2  4  1  0
  4  5  2  0
  5  6  1  0
  6  7  2  0
  7  8  1  0
  8  9  2  0
  9 10  1  0
 10 11  2  0
 11 12  1  0
 12 13  2  0
 13 14  1  0
 14 15  1  0
 15 16  1  0
 16 17  1  0
 17 18  1  0
 18 19  1  0
 19 20  1  0
 20 21  2  0
 21 22  1  0
 22 23  1  0
 20 24  1  0
 24 25  3  0
 17 26  1  0
 26 27  1  0
 13  4  1  0
 27 14  1  0
 12  7  1  0
 23 19  2  0
M  END
>  <AAScore>  (1) 
-0.6553876022000272

>  <RootName>  (1) 
./4ZLY/04_DeltaGEst/trajectory_03/rank_01/lead_0284

$$$$
