confid_10
     RDKit          3D

 27 30  0  0  0  0  0  0  0  0999 V2000
   24.5700   26.8800   35.5900 N   0  0  0  0  0  0  0  0  0  0  0  0
   25.5000   26.4000   34.6900 C   0  0  0  0  0  0  0  0  0  0  0  0
   25.1700   25.5200   33.9100 O   0  0  0  0  0  0  0  0  0  0  0  0
   26.8400   27.0200   34.7400 C   0  0  0  0  0  0  0  0  0  0  0  0
   27.3800   27.2800   35.9400 N   0  0  0  0  0  0  0  0  0  0  0  0
   28.6200   27.7400   36.0300 N   0  0  0  0  0  0  0  0  0  0  0  0
   29.3800   28.0000   34.9600 C   0  0  0  0  0  0  0  0  0  0  0  0
   30.6700   28.5000   35.1300 C   0  0  0  0  0  0  0  0  0  0  0  0
   31.5400   28.6100   34.0300 C   0  0  0  0  0  0  0  0  0  0  0  0
   31.0900   28.2200   32.7700 C   0  0  0  0  0  0  0  0  0  0  0  0
   29.8000   27.7000   32.6000 C   0  0  0  0  0  0  0  0  0  0  0  0
   28.9600   27.5500   33.7100 C   0  0  0  0  0  0  0  0  0  0  0  0
   27.6600   27.0300   33.5900 C   0  0  0  0  0  0  0  0  0  0  0  0
   27.1600   26.7400   32.3400 N   0  0  0  0  0  0  0  0  0  0  0  0
   32.9226   29.1831   34.2130 C   0  0  0  0  0  0  0  0  0  0  0  0
   32.8625   30.6311   34.5072 N   0  0  0  0  0  0  0  0  0  0  0  0
   34.1744   31.1430   34.9852 C   0  0  0  0  0  0  0  0  0  0  0  0
   34.9504   31.9187   33.9123 C   0  0  0  0  0  0  0  0  0  0  0  0
   34.1290   33.0194   33.3923 N   0  0  0  0  0  0  0  0  0  0  0  0
   32.6680   32.8745   33.4022 C   0  0  0  0  0  0  0  0  0  0  0  0
   32.2876   31.3909   33.3671 C   0  0  0  0  0  0  0  0  0  0  0  0
   34.7459   34.2148   32.8643 C   0  0  0  0  0  0  0  0  0  0  0  0
   34.1126   35.4660   32.9949 C   0  0  0  0  0  0  0  0  0  0  0  0
   34.7112   36.6211   32.4829 C   0  0  0  0  0  0  0  0  0  0  0  0
   35.9455   36.5426   31.8347 C   0  0  0  0  0  0  0  0  0  0  0  0
   36.5841   35.3085   31.6972 C   0  0  0  0  0  0  0  0  0  0  0  0
   35.9905   34.1502   32.2079 C   0  0  0  0  0  0  0  0  0  0  0  0
  1  2  1  0
  2  3  2  0
  2  4  1  0
  4  5  2  0
  5  6  1  0
  6  7  2  0
  7  8  1  0
  8  9  2  0
  9 10  1  0
 10 11  2  0
 11 12  1  0
 12 13  2  0
 13 14  1  0
  9 15  1  0
 15 16  1  0
 16 17  1  0
 17 18  1  0
 18 19  1  0
 19 20  1  0
 20 21  1  0
 19 22  1  0
 22 23  2  0
 23 24  1  0
 24 25  2  0
 25 26  1  0
 26 27  2  0
 13  4  1  0
 21 16  1  0
 27 22  1  0
 12  7  1  0
M  END
>  <AAScore>  (1) 
-6.481405891406721

>  <RootName>  (1) 
./4ZLY/04_DeltaGEst/trajectory_05/rank_01/lead_0145

$$$$
