confid_16
     RDKit          3D

 27 30  0  0  0  0  0  0  0  0999 V2000
   24.4800   26.1000   36.1300 N   0  0  0  0  0  0  0  0  0  0  0  0
   25.2500   26.2500   34.9900 C   0  0  0  0  0  0  0  0  0  0  0  0
   24.7400   25.7600   33.9900 O   0  0  0  0  0  0  0  0  0  0  0  0
   26.5900   26.8900   34.9600 C   0  0  0  0  0  0  0  0  0  0  0  0
   27.0600   27.2400   36.1600 N   0  0  0  0  0  0  0  0  0  0  0  0
   28.3000   27.7100   36.2400 N   0  0  0  0  0  0  0  0  0  0  0  0
   29.0500   27.9600   35.1500 C   0  0  0  0  0  0  0  0  0  0  0  0
   30.3400   28.4900   35.2600 C   0  0  0  0  0  0  0  0  0  0  0  0
   31.1100   28.8200   34.1400 C   0  0  0  0  0  0  0  0  0  0  0  0
   30.5200   28.6700   32.8800 C   0  0  0  0  0  0  0  0  0  0  0  0
   29.2900   28.0200   32.7700 C   0  0  0  0  0  0  0  0  0  0  0  0
   28.5200   27.7100   33.8900 C   0  0  0  0  0  0  0  0  0  0  0  0
   27.2700   27.0800   33.7600 C   0  0  0  0  0  0  0  0  0  0  0  0
   26.7500   26.8800   32.4900 N   0  0  0  0  0  0  0  0  0  0  0  0
   23.4692   25.0965   36.3352 C   0  0  0  0  0  0  0  0  0  0  0  0
   22.6502   25.1865   37.4135 N   0  0  0  0  0  0  0  0  0  0  0  0
   21.6959   24.2525   37.6528 C   0  0  0  0  0  0  0  0  0  0  0  0
   21.5441   23.1546   36.7941 C   0  0  0  0  0  0  0  0  0  0  0  0
   20.4692   22.1291   37.0910 C   0  0  0  0  0  0  0  0  0  0  0  0
   19.1856   22.3477   36.2758 C   0  0  0  0  0  0  0  0  0  0  0  0
   19.3449   21.8743   34.8808 N   0  0  0  0  0  0  0  0  0  0  0  0
   18.0556   21.4128   34.3394 C   0  0  0  0  0  0  0  0  0  0  0  0
   19.9522   22.9020   33.9991 C   0  0  0  0  0  0  0  0  0  0  0  0
   21.3226   22.4289   33.4972 C   0  0  0  0  0  0  0  0  0  0  0  0
   22.2777   22.0043   34.6225 C   0  0  0  0  0  0  0  0  0  0  0  0
   22.4089   23.0732   35.6766 C   0  0  0  0  0  0  0  0  0  0  0  0
   23.3378   24.0471   35.4815 N   0  0  0  0  0  0  0  0  0  0  0  0
  1  2  1  0
  2  3  2  0
  2  4  1  0
  4  5  2  0
  5  6  1  0
  6  7  2  0
  7  8  1  0
  8  9  2  0
  9 10  1  0
 10 11  2  0
 11 12  1  0
 12 13  2  0
 13 14  1  0
  1 15  1  0
 15 16  2  0
 16 17  1  0
 17 18  2  0
 18 19  1  0
 19 20  1  0
 20 21  1  0
 21 22  1  0
 21 23  1  0
 23 24  1  0
 24 25  1  0
 25 26  1  0
 26 27  2  0
 13  4  1  0
 27 15  1  0
 12  7  1  0
 26 18  1  0
M  END
>  <AAScore>  (1) 
262.80550119868326

>  <RootName>  (1) 
./4ZLY/04_DeltaGEst/trajectory_00/rank_01/lead_0401

$$$$
