confid_0
     RDKit          3D

 28 31  0  0  0  0  0  0  0  0999 V2000
   24.4800   26.1000   36.1300 N   0  0  0  0  0  0  0  0  0  0  0  0
   25.2500   26.2500   34.9900 C   0  0  0  0  0  0  0  0  0  0  0  0
   24.7400   25.7600   33.9900 O   0  0  0  0  0  0  0  0  0  0  0  0
   26.5900   26.8900   34.9600 C   0  0  0  0  0  0  0  0  0  0  0  0
   27.0600   27.2400   36.1600 N   0  0  0  0  0  0  0  0  0  0  0  0
   28.3000   27.7100   36.2400 N   0  0  0  0  0  0  0  0  0  0  0  0
   29.0500   27.9600   35.1500 C   0  0  0  0  0  0  0  0  0  0  0  0
   30.3400   28.4900   35.2600 C   0  0  0  0  0  0  0  0  0  0  0  0
   31.1100   28.8200   34.1400 C   0  0  0  0  0  0  0  0  0  0  0  0
   30.5200   28.6700   32.8800 C   0  0  0  0  0  0  0  0  0  0  0  0
   29.2900   28.0200   32.7700 C   0  0  0  0  0  0  0  0  0  0  0  0
   28.5200   27.7100   33.8900 C   0  0  0  0  0  0  0  0  0  0  0  0
   27.2700   27.0800   33.7600 C   0  0  0  0  0  0  0  0  0  0  0  0
   26.7500   26.8800   32.4900 N   0  0  0  0  0  0  0  0  0  0  0  0
   23.4852   25.0772   36.3359 C   0  0  0  0  0  0  0  0  0  0  0  0
   23.3965   24.0102   35.4949 N   0  0  0  0  0  0  0  0  0  0  0  0
   22.4850   23.0144   35.6665 C   0  0  0  0  0  0  0  0  0  0  0  0
   22.4273   21.9071   34.6549 C   0  0  0  0  0  0  0  0  0  0  0  0
   21.1195   21.9199   33.9893 N   0  0  0  0  0  0  0  0  0  0  0  0
   20.0265   21.1710   34.6256 C   0  0  0  0  0  0  0  0  0  0  0  0
   19.5063   21.9112   35.8656 C   0  0  0  0  0  0  0  0  0  0  0  0
   20.5512   21.9867   36.9922 C   0  0  0  0  0  0  0  0  0  0  0  0
   21.5827   23.0697   36.7523 C   0  0  0  0  0  0  0  0  0  0  0  0
   21.6653   24.1603   37.6316 C   0  0  0  0  0  0  0  0  0  0  0  0
   22.6162   25.1601   37.4289 C   0  0  0  0  0  0  0  0  0  0  0  0
   20.8743   22.8675   32.9224 C   0  0  0  0  0  0  0  0  0  0  0  0
   21.8210   23.5757   32.4825 O   0  0  0  0  0  0  0  0  0  0  0  0
   19.5182   23.0332   32.3041 C   0  0  0  0  0  0  0  0  0  0  0  0
  1  2  1  0
  2  3  2  0
  2  4  1  0
  4  5  2  0
  5  6  1  0
  6  7  2  0
  7  8  1  0
  8  9  2  0
  9 10  1  0
 10 11  2  0
 11 12  1  0
 12 13  2  0
 13 14  1  0
  1 15  1  0
 15 16  2  0
 16 17  1  0
 17 18  1  0
 18 19  1  0
 19 20  1  0
 20 21  1  0
 21 22  1  0
 22 23  1  0
 23 24  1  0
 24 25  2  0
 19 26  1  0
 26 27  2  0
 26 28  1  0
 13  4  1  0
 25 15  1  0
 12  7  1  0
 23 17  2  0
M  END
>  <AAScore>  (1) 
326.4357917713766

>  <RootName>  (1) 
./4ZLY/04_DeltaGEst/trajectory_00/rank_01/lead_0460

$$$$
