confid_5
     RDKit          3D

 26 28  0  0  0  0  0  0  0  0999 V2000
   24.5700   26.8800   35.5900 N   0  0  0  0  0  0  0  0  0  0  0  0
   25.5000   26.4000   34.6900 C   0  0  0  0  0  0  0  0  0  0  0  0
   25.1700   25.5200   33.9100 O   0  0  0  0  0  0  0  0  0  0  0  0
   26.8400   27.0200   34.7400 C   0  0  0  0  0  0  0  0  0  0  0  0
   27.3800   27.2800   35.9400 N   0  0  0  0  0  0  0  0  0  0  0  0
   28.6200   27.7400   36.0300 N   0  0  0  0  0  0  0  0  0  0  0  0
   29.3800   28.0000   34.9600 C   0  0  0  0  0  0  0  0  0  0  0  0
   30.6700   28.5000   35.1300 C   0  0  0  0  0  0  0  0  0  0  0  0
   31.5400   28.6100   34.0300 C   0  0  0  0  0  0  0  0  0  0  0  0
   31.0900   28.2200   32.7700 C   0  0  0  0  0  0  0  0  0  0  0  0
   29.8000   27.7000   32.6000 C   0  0  0  0  0  0  0  0  0  0  0  0
   28.9600   27.5500   33.7100 C   0  0  0  0  0  0  0  0  0  0  0  0
   27.6600   27.0300   33.5900 C   0  0  0  0  0  0  0  0  0  0  0  0
   27.1600   26.7400   32.3400 N   0  0  0  0  0  0  0  0  0  0  0  0
   33.1565   29.2832   34.2228 S   0  0  0  0  0  6  0  0  0  0  0  0
   33.5716   29.2164   35.6661 O   0  0  0  0  0  0  0  0  0  0  0  0
   34.1239   28.4611   33.4184 O   0  0  0  0  0  0  0  0  0  0  0  0
   33.2211   30.9830   33.6516 C   0  0  0  0  0  0  0  0  0  0  0  0
   31.9629   31.8020   34.0100 C   0  0  2  0  0  0  0  0  0  0  0  0
   31.9641   33.1276   33.2263 C   0  0  0  0  0  0  0  0  0  0  0  0
   30.8402   34.0428   33.7161 C   0  0  0  0  0  0  0  0  0  0  0  0
   31.0056   34.3822   35.2107 C   0  0  2  0  0  0  0  0  0  0  0  0
   32.0643   35.4722   35.4293 C   0  0  0  0  0  0  0  0  0  0  0  0
   31.3398   33.1583   36.0402 C   0  0  0  0  0  0  0  0  0  0  0  0
   31.8544   32.0347   35.5060 C   0  0  0  0  0  0  0  0  0  0  0  0
   31.1395   33.2463   37.7876 Cl  0  0  0  0  0  0  0  0  0  0  0  0
  1  2  1  0
  2  3  2  0
  2  4  1  0
  4  5  2  0
  5  6  1  0
  6  7  2  0
  7  8  1  0
  8  9  2  0
  9 10  1  0
 10 11  2  0
 11 12  1  0
 12 13  2  0
 13 14  1  0
  9 15  1  0
 15 16  2  0
 15 17  2  0
 15 18  1  0
 19 18  1  1
 19 20  1  0
 20 21  1  0
 21 22  1  0
 22 23  1  6
 22 24  1  0
 24 25  2  0
 24 26  1  0
 13  4  1  0
 25 19  1  0
 12  7  1  0
M  END
>  <AAScore>  (1) 
-6.566159108564369

>  <RootName>  (1) 
./4ZLY/04_DeltaGEst/trajectory_05/rank_01/lead_0234

$$$$
