confid_11
     RDKit          3D

 29 32  0  0  0  0  0  0  0  0999 V2000
   24.5500   26.3900   36.2500 N   0  0  0  0  0  0  0  0  0  0  0  0
   25.6000   26.1300   35.4000 C   0  0  0  0  0  0  0  0  0  0  0  0
   25.4300   25.4300   34.4200 O   0  0  0  0  0  0  0  0  0  0  0  0
   26.9800   26.6300   35.7100 C   0  0  0  0  0  0  0  0  0  0  0  0
   27.3200   26.8200   36.9800 N   0  0  0  0  0  0  0  0  0  0  0  0
   28.4700   27.4000   37.3100 N   0  0  0  0  0  0  0  0  0  0  0  0
   29.4000   27.6300   36.3700 C   0  0  0  0  0  0  0  0  0  0  0  0
   30.6600   28.0500   36.8000 C   0  0  0  0  0  0  0  0  0  0  0  0
   31.5700   28.3600   35.7800 C   0  0  0  0  0  0  0  0  0  0  0  0
   31.3700   28.1000   34.4300 C   0  0  0  0  0  0  0  0  0  0  0  0
   30.1200   27.5900   34.0500 C   0  0  0  0  0  0  0  0  0  0  0  0
   29.1500   27.3400   35.0300 C   0  0  0  0  0  0  0  0  0  0  0  0
   27.8800   26.8900   34.6600 C   0  0  0  0  0  0  0  0  0  0  0  0
   27.4800   26.6100   33.3700 N   0  0  0  0  0  0  0  0  0  0  0  0
   31.0166   28.2816   38.2222 C   0  0  0  0  0  0  0  0  0  0  0  0
   30.6307   27.4927   39.3110 C   0  0  0  0  0  0  0  0  0  0  0  0
   31.1537   27.9466   40.5274 C   0  0  0  0  0  0  0  0  0  0  0  0
   30.9970   27.2571   41.8514 C   0  0  0  0  0  0  0  0  0  0  0  0
   31.2508   28.2356   43.0146 C   0  0  0  0  0  0  0  0  0  0  0  0
   32.4600   29.0395   42.7705 N   0  0  0  0  0  0  0  0  0  0  0  0
   33.3985   29.2454   43.8374 C   0  0  0  0  0  0  0  0  0  0  0  0
   32.9878   29.6888   44.9442 O   0  0  0  0  0  0  0  0  0  0  0  0
   34.7915   28.9312   43.6594 N   0  0  0  0  0  0  0  0  0  0  0  0
   35.7842   29.5304   44.5546 C   0  0  0  0  0  0  0  0  0  0  0  0
   35.1906   27.9356   42.6599 C   0  0  0  0  0  0  0  0  0  0  0  0
   32.6371   29.6499   41.5055 N   0  0  0  0  0  0  0  0  0  0  0  0
   33.4716   30.8416   41.3266 C   0  0  0  0  0  0  0  0  0  0  0  0
   31.9643   29.0541   40.3911 C   0  0  0  0  0  0  0  0  0  0  0  0
   32.0412   29.5115   38.7754 S   0  0  0  0  0  0  0  0  0  0  0  0
  1  2  1  0
  2  3  2  0
  2  4  1  0
  4  5  2  0
  5  6  1  0
  6  7  2  0
  7  8  1  0
  8  9  2  0
  9 10  1  0
 10 11  2  0
 11 12  1  0
 12 13  2  0
 13 14  1  0
  8 15  1  0
 15 16  2  0
 16 17  1  0
 17 18  1  0
 18 19  1  0
 19 20  1  0
 20 21  1  0
 21 22  2  0
 21 23  1  0
 23 24  1  0
 23 25  1  0
 20 26  1  0
 26 27  1  0
 26 28  1  0
 28 29  1  0
 13  4  1  0
 29 15  1  0
 12  7  1  0
 28 17  2  0
M  END
>  <AAScore>  (1) 
696.6611332343795

>  <RootName>  (1) 
./4ZLY/04_DeltaGEst/trajectory_01/rank_01/lead_0311

$$$$
