confid_1
     RDKit          3D

 27 30  0  0  0  0  0  0  0  0999 V2000
   24.2000   26.2400   35.6900 N   0  0  0  0  0  0  0  0  0  0  0  0
   24.8500   26.2800   34.4800 C   0  0  0  0  0  0  0  0  0  0  0  0
   24.3100   25.7400   33.5400 O   0  0  0  0  0  0  0  0  0  0  0  0
   26.1800   26.9700   34.4700 C   0  0  0  0  0  0  0  0  0  0  0  0
   26.6500   27.6000   35.5500 N   0  0  0  0  0  0  0  0  0  0  0  0
   27.7900   28.2700   35.6200 N   0  0  0  0  0  0  0  0  0  0  0  0
   28.5400   28.3000   34.5100 C   0  0  0  0  0  0  0  0  0  0  0  0
   29.7700   28.9400   34.5600 C   0  0  0  0  0  0  0  0  0  0  0  0
   30.7000   28.8900   33.5000 C   0  0  0  0  0  0  0  0  0  0  0  0
   30.3700   28.1400   32.3700 C   0  0  0  0  0  0  0  0  0  0  0  0
   29.1200   27.5200   32.2800 C   0  0  0  0  0  0  0  0  0  0  0  0
   28.2100   27.6100   33.3300 C   0  0  0  0  0  0  0  0  0  0  0  0
   26.9700   26.9700   33.3100 C   0  0  0  0  0  0  0  0  0  0  0  0
   26.5300   26.2400   32.2200 N   0  0  0  0  0  0  0  0  0  0  0  0
   23.1831   25.2692   36.0122 C   0  0  0  0  0  0  0  0  0  0  0  0
   23.2334   24.0394   35.4332 N   0  0  0  0  0  0  0  0  0  0  0  0
   22.3498   23.0570   35.7291 C   0  0  0  0  0  0  0  0  0  0  0  0
   21.3674   23.2613   36.7011 C   0  0  0  0  0  0  0  0  0  0  0  0
   20.3654   22.1735   36.9803 C   0  0  0  0  0  0  0  0  0  0  0  0
   19.9029   22.2270   38.4010 C   0  0  0  0  0  0  0  0  0  0  0  0
   19.5186   21.1678   38.9674 O   0  0  0  0  0  0  0  0  0  0  0  0
   19.8602   23.4832   39.0983 N   0  0  0  0  0  0  0  0  0  0  0  0
   20.2144   24.7291   38.4033 C   0  0  0  0  0  0  0  0  0  0  0  0
   21.2853   24.5125   37.3478 C   0  0  0  0  0  0  0  0  0  0  0  0
   22.1624   25.5577   36.9513 C   0  0  0  0  0  0  0  0  0  0  0  0
   22.0183   26.9538   37.5151 C   0  0  0  0  0  0  0  0  0  0  0  0
   19.3266   23.5345   40.4620 C   0  0  0  0  0  0  0  0  0  0  0  0
  1  2  1  0
  2  3  2  0
  2  4  1  0
  4  5  2  0
  5  6  1  0
  6  7  2  0
  7  8  1  0
  8  9  2  0
  9 10  1  0
 10 11  2  0
 11 12  1  0
 12 13  2  0
 13 14  1  0
  1 15  1  0
 15 16  2  0
 16 17  1  0
 17 18  2  0
 18 19  1  0
 19 20  1  0
 20 21  2  0
 20 22  1  0
 22 23  1  0
 23 24  1  0
 24 25  2  0
 25 26  1  0
 22 27  1  0
 13  4  1  0
 25 15  1  0
 12  7  1  0
 24 18  1  0
M  END
>  <AAScore>  (1) 
611.2436640886166

>  <RootName>  (1) 
./4ZLY/04_DeltaGEst/trajectory_04/rank_00/lead_0047

$$$$
