confid_3
     RDKit          3D

 28 31  0  0  0  0  0  0  0  0999 V2000
   25.3300   26.2600   34.7600 N   0  0  0  0  0  0  0  0  0  0  0  0
   26.1200   25.9200   33.6900 C   0  0  0  0  0  0  0  0  0  0  0  0
   25.6300   25.1100   32.9400 O   0  0  0  0  0  0  0  0  0  0  0  0
   27.5200   26.3800   33.4600 C   0  0  0  0  0  0  0  0  0  0  0  0
   28.1600   26.6300   34.6100 N   0  0  0  0  0  0  0  0  0  0  0  0
   29.4800   26.8500   34.5700 N   0  0  0  0  0  0  0  0  0  0  0  0
   30.1900   26.7800   33.4400 C   0  0  0  0  0  0  0  0  0  0  0  0
   31.5600   27.0500   33.5000 C   0  0  0  0  0  0  0  0  0  0  0  0
   32.2700   27.2400   32.3100 C   0  0  0  0  0  0  0  0  0  0  0  0
   31.6100   27.2500   31.0800 C   0  0  0  0  0  0  0  0  0  0  0  0
   30.2700   26.8700   31.0600 C   0  0  0  0  0  0  0  0  0  0  0  0
   29.5100   26.6900   32.2300 C   0  0  0  0  0  0  0  0  0  0  0  0
   28.1400   26.4100   32.2000 C   0  0  0  0  0  0  0  0  0  0  0  0
   27.4300   26.1300   31.0500 N   0  0  0  0  0  0  0  0  0  0  0  0
   27.5663   24.7892   30.4530 C   0  0  0  0  0  0  0  0  0  0  0  0
   26.4880   24.5273   29.3977 C   0  0  0  0  0  0  0  0  0  0  0  0
   26.4447   25.6457   28.4547 N   0  0  0  0  0  0  0  0  0  0  0  0
   26.3820   26.9734   29.0023 C   0  0  0  0  0  0  0  0  0  0  0  0
   26.1410   27.9638   28.2584 O   0  0  0  0  0  0  0  0  0  0  0  0
   26.5647   27.1762   30.4775 C   0  0  0  0  0  0  0  0  0  0  0  0
   26.5721   25.4224   27.0109 C   0  0  0  0  0  0  0  0  0  0  0  0
   27.9651   25.7766   26.5604 C   0  0  0  0  0  0  0  0  0  0  0  0
   29.0461   24.9574   26.9161 C   0  0  0  0  0  0  0  0  0  0  0  0
   30.3465   25.3203   26.5659 C   0  0  0  0  0  0  0  0  0  0  0  0
   30.5807   26.4954   25.8468 C   0  0  0  0  0  0  0  0  0  0  0  0
   29.5104   27.3248   25.4842 C   0  0  0  0  0  0  0  0  0  0  0  0
   29.7531   28.5682   24.6790 C   0  0  0  0  0  0  0  0  0  0  0  0
   28.2050   26.9595   25.8414 C   0  0  0  0  0  0  0  0  0  0  0  0
  1  2  1  0
  2  3  2  0
  2  4  1  0
  4  5  2  0
  5  6  1  0
  6  7  2  0
  7  8  1  0
  8  9  2  0
  9 10  1  0
 10 11  2  0
 11 12  1  0
 12 13  2  0
 13 14  1  0
 14 15  1  0
 15 16  1  0
 16 17  1  0
 17 18  1  0
 18 19  2  0
 18 20  1  0
 17 21  1  0
 21 22  1  0
 22 23  2  0
 23 24  1  0
 24 25  2  0
 25 26  1  0
 26 27  1  0
 26 28  2  0
 13  4  1  0
 20 14  1  0
 28 22  1  0
 12  7  1  0
M  END
>  <AAScore>  (1) 
1.9220928225494915

>  <RootName>  (1) 
./4ZLY/04_DeltaGEst/trajectory_03/rank_01/lead_0005

$$$$
