confid_14
     RDKit          3D

 29 32  0  0  0  0  0  0  0  0999 V2000
   24.2000   26.2400   35.6900 N   0  0  0  0  0  0  0  0  0  0  0  0
   24.8500   26.2800   34.4800 C   0  0  0  0  0  0  0  0  0  0  0  0
   24.3100   25.7400   33.5400 O   0  0  0  0  0  0  0  0  0  0  0  0
   26.1800   26.9700   34.4700 C   0  0  0  0  0  0  0  0  0  0  0  0
   26.6500   27.6000   35.5500 N   0  0  0  0  0  0  0  0  0  0  0  0
   27.7900   28.2700   35.6200 N   0  0  0  0  0  0  0  0  0  0  0  0
   28.5400   28.3000   34.5100 C   0  0  0  0  0  0  0  0  0  0  0  0
   29.7700   28.9400   34.5600 C   0  0  0  0  0  0  0  0  0  0  0  0
   30.7000   28.8900   33.5000 C   0  0  0  0  0  0  0  0  0  0  0  0
   30.3700   28.1400   32.3700 C   0  0  0  0  0  0  0  0  0  0  0  0
   29.1200   27.5200   32.2800 C   0  0  0  0  0  0  0  0  0  0  0  0
   28.2100   27.6100   33.3300 C   0  0  0  0  0  0  0  0  0  0  0  0
   26.9700   26.9700   33.3100 C   0  0  0  0  0  0  0  0  0  0  0  0
   26.5300   26.2400   32.2200 N   0  0  0  0  0  0  0  0  0  0  0  0
   30.1410   29.6739   35.7374 N   0  0  0  0  0  0  0  0  0  0  0  0
   31.1513   29.1287   36.6491 C   0  0  0  0  0  0  0  0  0  0  0  0
   32.1659   30.2172   37.0091 C   0  0  0  0  0  0  0  0  0  0  0  0
   31.4985   31.4690   37.4029 N   0  0  0  0  0  0  0  0  0  0  0  0
   32.2798   32.5292   37.9884 C   0  0  0  0  0  0  0  0  0  0  0  0
   33.4447   32.9829   37.3459 C   0  0  0  0  0  0  0  0  0  0  0  0
   34.2162   34.0127   37.8976 C   0  0  0  0  0  0  0  0  0  0  0  0
   35.3653   34.4268   37.2074 O   0  0  0  0  0  0  0  0  0  0  0  0
   36.2390   35.4610   37.6483 C   0  0  0  0  0  0  0  0  0  0  0  0
   33.8168   34.5948   39.1146 C   0  0  0  0  0  0  0  0  0  0  0  0
   32.6640   34.1463   39.7625 C   0  0  0  0  0  0  0  0  0  0  0  0
   31.8966   33.1191   39.2075 C   0  0  0  0  0  0  0  0  0  0  0  0
   30.8011   32.6807   39.8769 F   0  0  0  0  0  0  0  0  0  0  0  0
   30.0372   31.5964   37.3008 C   0  0  0  0  0  0  0  0  0  0  0  0
   29.5385   30.9903   35.9844 C   0  0  0  0  0  0  0  0  0  0  0  0
  1  2  1  0
  2  3  2  0
  2  4  1  0
  4  5  2  0
  5  6  1  0
  6  7  2  0
  7  8  1  0
  8  9  2  0
  9 10  1  0
 10 11  2  0
 11 12  1  0
 12 13  2  0
 13 14  1  0
  8 15  1  0
 15 16  1  0
 16 17  1  0
 17 18  1  0
 18 19  1  0
 19 20  2  0
 20 21  1  0
 21 22  1  0
 22 23  1  0
 21 24  2  0
 24 25  1  0
 25 26  2  0
 26 27  1  0
 18 28  1  0
 28 29  1  0
 13  4  1  0
 29 15  1  0
 12  7  1  0
 26 19  1  0
M  END
>  <AAScore>  (1) 
-7.422516443100348

>  <RootName>  (1) 
./4ZLY/04_DeltaGEst/trajectory_04/rank_01/lead_0405

$$$$
