confid_4
     RDKit          3D

 29 32  0  0  0  0  0  0  0  0999 V2000
   24.2000   26.2400   35.6900 N   0  0  0  0  0  0  0  0  0  0  0  0
   24.8500   26.2800   34.4800 C   0  0  0  0  0  0  0  0  0  0  0  0
   24.3100   25.7400   33.5400 O   0  0  0  0  0  0  0  0  0  0  0  0
   26.1800   26.9700   34.4700 C   0  0  0  0  0  0  0  0  0  0  0  0
   26.6500   27.6000   35.5500 N   0  0  0  0  0  0  0  0  0  0  0  0
   27.7900   28.2700   35.6200 N   0  0  0  0  0  0  0  0  0  0  0  0
   28.5400   28.3000   34.5100 C   0  0  0  0  0  0  0  0  0  0  0  0
   29.7700   28.9400   34.5600 C   0  0  0  0  0  0  0  0  0  0  0  0
   30.7000   28.8900   33.5000 C   0  0  0  0  0  0  0  0  0  0  0  0
   30.3700   28.1400   32.3700 C   0  0  0  0  0  0  0  0  0  0  0  0
   29.1200   27.5200   32.2800 C   0  0  0  0  0  0  0  0  0  0  0  0
   28.2100   27.6100   33.3300 C   0  0  0  0  0  0  0  0  0  0  0  0
   26.9700   26.9700   33.3100 C   0  0  0  0  0  0  0  0  0  0  0  0
   26.5300   26.2400   32.2200 N   0  0  0  0  0  0  0  0  0  0  0  0
   22.7804   26.0443   35.8432 C   0  0  0  0  0  0  0  0  0  0  0  0
   21.9741   26.2005   34.8198 N   0  0  0  0  0  0  0  0  0  0  0  0
   20.5413   26.0303   34.8889 C   0  0  0  0  0  0  0  0  0  0  0  0
   19.9745   25.7074   36.0503 C   0  0  0  0  0  0  0  0  0  0  0  0
   18.5435   25.4433   36.3580 C   0  0  0  0  0  0  0  0  0  0  0  0
   18.6086   25.0270   37.7621 N   0  0  0  0  0  0  0  0  0  0  0  0
   17.4433   24.5862   38.5324 C   0  0  0  0  0  0  0  0  0  0  0  0
   17.4893   23.0690   38.8083 C   0  0  0  0  0  0  0  0  0  0  0  0
   17.4985   22.2624   37.5034 C   0  0  0  0  0  0  0  0  0  0  0  0
   16.2962   22.6550   39.6758 C   0  0  0  0  0  0  0  0  0  0  0  0
   19.9624   25.1420   38.2327 C   0  0  0  0  0  0  0  0  0  0  0  0
   20.7619   25.5173   37.2409 C   0  0  0  0  0  0  0  0  0  0  0  0
   22.2189   25.6842   37.1731 C   0  0  0  0  0  0  0  0  0  0  0  0
   22.9585   25.5167   38.1777 O   0  0  0  0  0  0  0  0  0  0  0  0
   20.4184   24.7890   39.6189 C   0  0  0  0  0  0  0  0  0  0  0  0
  1  2  1  0
  2  3  2  0
  2  4  1  0
  4  5  2  0
  5  6  1  0
  6  7  2  0
  7  8  1  0
  8  9  2  0
  9 10  1  0
 10 11  2  0
 11 12  1  0
 12 13  2  0
 13 14  1  0
  1 15  1  0
 15 16  2  0
 16 17  1  0
 17 18  2  0
 18 19  1  0
 19 20  1  0
 20 21  1  0
 21 22  1  0
 22 23  1  0
 22 24  1  0
 20 25  1  0
 25 26  2  0
 26 27  1  0
 27 28  2  0
 25 29  1  0
 13  4  1  0
 27 15  1  0
 12  7  1  0
 26 18  1  0
M  END
>  <AAScore>  (1) 
645.2092185708234

>  <RootName>  (1) 
./4ZLY/04_DeltaGEst/trajectory_04/rank_00/lead_0297

$$$$
