confid_6
     RDKit          3D

 28 31  0  0  0  0  0  0  0  0999 V2000
   25.3300   26.2600   34.7600 N   0  0  0  0  0  0  0  0  0  0  0  0
   26.1200   25.9200   33.6900 C   0  0  0  0  0  0  0  0  0  0  0  0
   25.6300   25.1100   32.9400 O   0  0  0  0  0  0  0  0  0  0  0  0
   27.5200   26.3800   33.4600 C   0  0  0  0  0  0  0  0  0  0  0  0
   28.1600   26.6300   34.6100 N   0  0  0  0  0  0  0  0  0  0  0  0
   29.4800   26.8500   34.5700 N   0  0  0  0  0  0  0  0  0  0  0  0
   30.1900   26.7800   33.4400 C   0  0  0  0  0  0  0  0  0  0  0  0
   31.5600   27.0500   33.5000 C   0  0  0  0  0  0  0  0  0  0  0  0
   32.2700   27.2400   32.3100 C   0  0  0  0  0  0  0  0  0  0  0  0
   31.6100   27.2500   31.0800 C   0  0  0  0  0  0  0  0  0  0  0  0
   30.2700   26.8700   31.0600 C   0  0  0  0  0  0  0  0  0  0  0  0
   29.5100   26.6900   32.2300 C   0  0  0  0  0  0  0  0  0  0  0  0
   28.1400   26.4100   32.2000 C   0  0  0  0  0  0  0  0  0  0  0  0
   27.4300   26.1300   31.0500 N   0  0  0  0  0  0  0  0  0  0  0  0
   27.6082   24.8117   30.4165 C   0  0  0  0  0  0  0  0  0  0  0  0
   26.7014   24.5857   29.1943 C   0  0  0  0  0  0  0  0  0  0  0  0
   26.9651   25.5120   27.9842 C   0  0  0  0  0  0  0  0  0  0  0  0
   27.6803   26.7623   28.3098 N   0  0  0  0  0  0  0  0  0  0  0  0
   28.6200   27.2824   27.3376 C   0  0  0  0  0  0  0  0  0  0  0  0
   28.5661   28.5028   27.0186 O   0  0  0  0  0  0  0  0  0  0  0  0
   29.6445   26.4301   26.6837 C   0  0  0  0  0  0  0  0  0  0  0  0
   30.0843   26.7366   25.3824 C   0  0  0  0  0  0  0  0  0  0  0  0
   31.0618   25.9531   24.7612 C   0  0  0  0  0  0  0  0  0  0  0  0
   31.6176   24.8632   25.4344 C   0  0  0  0  0  0  0  0  0  0  0  0
   31.1995   24.5580   26.7313 C   0  0  0  0  0  0  0  0  0  0  0  0
   30.2217   25.3386   27.3549 C   0  0  0  0  0  0  0  0  0  0  0  0
   27.0650   27.7500   29.2175 C   0  0  0  0  0  0  0  0  0  0  0  0
   26.5150   27.1443   30.5106 C   0  0  0  0  0  0  0  0  0  0  0  0
  1  2  1  0
  2  3  2  0
  2  4  1  0
  4  5  2  0
  5  6  1  0
  6  7  2  0
  7  8  1  0
  8  9  2  0
  9 10  1  0
 10 11  2  0
 11 12  1  0
 12 13  2  0
 13 14  1  0
 14 15  1  0
 15 16  1  0
 16 17  1  0
 17 18  1  0
 18 19  1  0
 19 20  2  0
 19 21  1  0
 21 22  2  0
 22 23  1  0
 23 24  2  0
 24 25  1  0
 25 26  2  0
 18 27  1  0
 27 28  1  0
 13  4  1  0
 28 14  1  0
 12  7  1  0
 26 21  1  0
M  END
>  <AAScore>  (1) 
-1.1619775489867528

>  <RootName>  (1) 
./4ZLY/04_DeltaGEst/trajectory_03/rank_01/lead_0317

$$$$
