confid_1
     RDKit          3D

 27 30  0  0  0  0  0  0  0  0999 V2000
   25.3300   26.2600   34.7600 N   0  0  0  0  0  0  0  0  0  0  0  0
   26.1200   25.9200   33.6900 C   0  0  0  0  0  0  0  0  0  0  0  0
   25.6300   25.1100   32.9400 O   0  0  0  0  0  0  0  0  0  0  0  0
   27.5200   26.3800   33.4600 C   0  0  0  0  0  0  0  0  0  0  0  0
   28.1600   26.6300   34.6100 N   0  0  0  0  0  0  0  0  0  0  0  0
   29.4800   26.8500   34.5700 N   0  0  0  0  0  0  0  0  0  0  0  0
   30.1900   26.7800   33.4400 C   0  0  0  0  0  0  0  0  0  0  0  0
   31.5600   27.0500   33.5000 C   0  0  0  0  0  0  0  0  0  0  0  0
   32.2700   27.2400   32.3100 C   0  0  0  0  0  0  0  0  0  0  0  0
   31.6100   27.2500   31.0800 C   0  0  0  0  0  0  0  0  0  0  0  0
   30.2700   26.8700   31.0600 C   0  0  0  0  0  0  0  0  0  0  0  0
   29.5100   26.6900   32.2300 C   0  0  0  0  0  0  0  0  0  0  0  0
   28.1400   26.4100   32.2000 C   0  0  0  0  0  0  0  0  0  0  0  0
   27.4300   26.1300   31.0500 N   0  0  0  0  0  0  0  0  0  0  0  0
   24.1704   25.5346   35.2228 C   0  0  0  0  0  0  0  0  0  0  0  0
   23.9239   24.2686   34.7848 N   0  0  0  0  0  0  0  0  0  0  0  0
   22.8588   23.5452   35.2146 C   0  0  0  0  0  0  0  0  0  0  0  0
   21.9735   24.0845   36.1546 C   0  0  0  0  0  0  0  0  0  0  0  0
   20.7526   23.3066   36.5819 C   0  0  0  0  0  0  0  0  0  0  0  0
   20.3580   23.6508   38.0217 C   0  0  0  0  0  0  0  0  0  0  0  0
   20.2322   25.1044   38.1866 N   0  0  0  0  0  0  0  0  0  0  0  0
   21.2316   25.9606   37.6038 C   0  0  0  0  0  0  0  0  0  0  0  0
   21.2737   27.1833   37.9113 O   0  0  0  0  0  0  0  0  0  0  0  0
   22.1888   25.3942   36.6242 C   0  0  0  0  0  0  0  0  0  0  0  0
   23.3019   26.1199   36.1595 C   0  0  0  0  0  0  0  0  0  0  0  0
   23.5438   27.3790   36.6077 F   0  0  0  0  0  0  0  0  0  0  0  0
   19.1380   25.6790   38.9722 C   0  0  0  0  0  0  0  0  0  0  0  0
  1  2  1  0
  2  3  2  0
  2  4  1  0
  4  5  2  0
  5  6  1  0
  6  7  2  0
  7  8  1  0
  8  9  2  0
  9 10  1  0
 10 11  2  0
 11 12  1  0
 12 13  2  0
 13 14  1  0
  1 15  1  0
 15 16  2  0
 16 17  1  0
 17 18  2  0
 18 19  1  0
 19 20  1  0
 20 21  1  0
 21 22  1  0
 22 23  2  0
 22 24  1  0
 24 25  2  0
 25 26  1  0
 21 27  1  0
 13  4  1  0
 25 15  1  0
 12  7  1  0
 24 18  1  0
M  END
>  <AAScore>  (1) 
10844.504960600185

>  <RootName>  (1) 
./4ZLY/04_DeltaGEst/trajectory_03/rank_00/lead_0474

$$$$
