confid_4
     RDKit          3D

 29 32  0  0  0  0  0  0  0  0999 V2000
   24.2000   26.2400   35.6900 N   0  0  0  0  0  0  0  0  0  0  0  0
   24.8500   26.2800   34.4800 C   0  0  0  0  0  0  0  0  0  0  0  0
   24.3100   25.7400   33.5400 O   0  0  0  0  0  0  0  0  0  0  0  0
   26.1800   26.9700   34.4700 C   0  0  0  0  0  0  0  0  0  0  0  0
   26.6500   27.6000   35.5500 N   0  0  0  0  0  0  0  0  0  0  0  0
   27.7900   28.2700   35.6200 N   0  0  0  0  0  0  0  0  0  0  0  0
   28.5400   28.3000   34.5100 C   0  0  0  0  0  0  0  0  0  0  0  0
   29.7700   28.9400   34.5600 C   0  0  0  0  0  0  0  0  0  0  0  0
   30.7000   28.8900   33.5000 C   0  0  0  0  0  0  0  0  0  0  0  0
   30.3700   28.1400   32.3700 C   0  0  0  0  0  0  0  0  0  0  0  0
   29.1200   27.5200   32.2800 C   0  0  0  0  0  0  0  0  0  0  0  0
   28.2100   27.6100   33.3300 C   0  0  0  0  0  0  0  0  0  0  0  0
   26.9700   26.9700   33.3100 C   0  0  0  0  0  0  0  0  0  0  0  0
   26.5300   26.2400   32.2200 N   0  0  0  0  0  0  0  0  0  0  0  0
   30.1279   29.7033   35.7263 N   0  0  0  0  0  0  0  0  0  0  0  0
   31.3166   29.3522   36.5094 C   0  0  0  0  0  0  0  0  0  0  0  0
   31.8948   30.6083   37.1539 C   0  0  0  0  0  0  0  0  0  0  0  0
   30.8374   31.3785   37.8134 N   0  0  0  0  0  0  0  0  0  0  0  0
   31.2130   32.2857   38.8573 C   0  0  0  0  0  0  0  0  0  0  0  0
   31.4311   33.6379   38.6858 C   0  0  0  0  0  0  0  0  0  0  0  0
   31.6590   34.1375   39.9557 C   0  0  0  0  0  0  0  0  0  0  0  0
   31.5518   33.0786   40.8418 C   0  0  0  0  0  0  0  0  0  0  0  0
   31.2987   31.9446   40.1587 N   0  0  0  0  0  0  0  0  0  0  0  0
   30.9795   30.6455   40.7405 C   0  0  0  0  0  0  0  0  0  0  0  0
   31.8210   35.5827   40.3158 C   0  0  0  0  0  0  0  0  0  0  0  0
   30.4633   36.2293   40.5692 C   0  0  0  0  0  0  0  0  0  0  0  0
   29.5187   31.4330   37.2263 C   0  0  0  0  0  0  0  0  0  0  0  0
   29.2221   30.6577   36.2270 N   0  0  0  0  0  0  0  0  0  0  0  0
   28.4830   32.3957   37.7277 C   0  0  0  0  0  0  0  0  0  0  0  0
  1  2  1  0
  2  3  2  0
  2  4  1  0
  4  5  2  0
  5  6  1  0
  6  7  2  0
  7  8  1  0
  8  9  2  0
  9 10  1  0
 10 11  2  0
 11 12  1  0
 12 13  2  0
 13 14  1  0
  8 15  1  0
 15 16  1  0
 16 17  1  0
 17 18  1  0
 18 19  1  0
 19 20  2  0
 20 21  1  0
 21 22  2  0
 22 23  1  0
 23 24  1  0
 21 25  1  0
 25 26  1  0
 18 27  1  0
 27 28  2  0
 27 29  1  0
 13  4  1  0
 28 15  1  0
 12  7  1  0
 23 19  1  0
M  END
>  <AAScore>  (1) 
-6.435181099003002

>  <RootName>  (1) 
./4ZLY/04_DeltaGEst/trajectory_04/rank_01/lead_0389

$$$$
