confid_15
     RDKit          3D

 29 31  0  0  0  0  0  0  0  0999 V2000
   24.5700   26.8800   35.5900 N   0  0  0  0  0  0  0  0  0  0  0  0
   25.5000   26.4000   34.6900 C   0  0  0  0  0  0  0  0  0  0  0  0
   25.1700   25.5200   33.9100 O   0  0  0  0  0  0  0  0  0  0  0  0
   26.8400   27.0200   34.7400 C   0  0  0  0  0  0  0  0  0  0  0  0
   27.3800   27.2800   35.9400 N   0  0  0  0  0  0  0  0  0  0  0  0
   28.6200   27.7400   36.0300 N   0  0  0  0  0  0  0  0  0  0  0  0
   29.3800   28.0000   34.9600 C   0  0  0  0  0  0  0  0  0  0  0  0
   30.6700   28.5000   35.1300 C   0  0  0  0  0  0  0  0  0  0  0  0
   31.5400   28.6100   34.0300 C   0  0  0  0  0  0  0  0  0  0  0  0
   31.0900   28.2200   32.7700 C   0  0  0  0  0  0  0  0  0  0  0  0
   29.8000   27.7000   32.6000 C   0  0  0  0  0  0  0  0  0  0  0  0
   28.9600   27.5500   33.7100 C   0  0  0  0  0  0  0  0  0  0  0  0
   27.6600   27.0300   33.5900 C   0  0  0  0  0  0  0  0  0  0  0  0
   27.1600   26.7400   32.3400 N   0  0  0  0  0  0  0  0  0  0  0  0
   33.1789   29.2141   34.2542 S   0  0  0  0  0  6  0  0  0  0  0  0
   33.6803   29.7872   32.9583 O   0  0  0  0  0  0  0  0  0  0  0  0
   33.1613   30.3048   35.2889 O   0  0  0  0  0  0  0  0  0  0  0  0
   34.2207   27.8528   34.8004 C   0  0  1  0  0  0  0  0  0  0  0  0
   34.5698   26.9161   33.6501 C   0  0  0  0  0  0  0  0  0  0  0  0
   35.9198   27.2676   33.1984 N   0  0  0  0  0  0  0  0  0  0  0  0
   36.5853   28.1016   34.2161 C   0  0  2  0  0  0  0  0  0  0  0  0
   35.5676   28.3170   35.3457 C   0  0  0  0  0  0  0  0  0  0  0  0
   37.0234   29.4615   33.6217 C   0  0  0  0  0  0  0  0  0  0  0  0
   38.1008   29.3359   32.5464 C   0  0  0  0  0  0  0  0  0  0  0  0
   36.7386   26.2137   32.5360 C   0  0  0  0  0  0  0  0  0  0  0  0
   36.9382   24.8081   33.2328 C   0  0  0  0  0  0  0  0  0  0  0  0
   35.7408   23.8465   32.9755 C   0  0  0  0  0  0  0  0  0  0  0  0
   37.2117   24.9105   34.7485 C   0  0  0  0  0  0  0  0  0  0  0  0
   38.1870   24.1567   32.5831 C   0  0  0  0  0  0  0  0  0  0  0  0
  1  2  1  0
  2  3  2  0
  2  4  1  0
  4  5  2  0
  5  6  1  0
  6  7  2  0
  7  8  1  0
  8  9  2  0
  9 10  1  0
 10 11  2  0
 11 12  1  0
 12 13  2  0
 13 14  1  0
  9 15  1  0
 15 16  2  0
 15 17  2  0
 18 15  1  6
 18 19  1  0
 19 20  1  0
 20 21  1  0
 21 22  1  0
 21 23  1  6
 23 24  1  0
 20 25  1  0
 25 26  1  0
 26 27  1  0
 26 28  1  0
 26 29  1  0
 13  4  1  0
 22 18  1  0
 12  7  1  0
M  END
>  <AAScore>  (1) 
244.3862851716372

>  <RootName>  (1) 
./4ZLY/04_DeltaGEst/trajectory_05/rank_01/lead_0433

$$$$
