confid_2
     RDKit          3D

 30 33  0  0  0  0  0  0  0  0999 V2000
   24.4800   26.1000   36.1300 N   0  0  0  0  0  0  0  0  0  0  0  0
   25.2500   26.2500   34.9900 C   0  0  0  0  0  0  0  0  0  0  0  0
   24.7400   25.7600   33.9900 O   0  0  0  0  0  0  0  0  0  0  0  0
   26.5900   26.8900   34.9600 C   0  0  0  0  0  0  0  0  0  0  0  0
   27.0600   27.2400   36.1600 N   0  0  0  0  0  0  0  0  0  0  0  0
   28.3000   27.7100   36.2400 N   0  0  0  0  0  0  0  0  0  0  0  0
   29.0500   27.9600   35.1500 C   0  0  0  0  0  0  0  0  0  0  0  0
   30.3400   28.4900   35.2600 C   0  0  0  0  0  0  0  0  0  0  0  0
   31.1100   28.8200   34.1400 C   0  0  0  0  0  0  0  0  0  0  0  0
   30.5200   28.6700   32.8800 C   0  0  0  0  0  0  0  0  0  0  0  0
   29.2900   28.0200   32.7700 C   0  0  0  0  0  0  0  0  0  0  0  0
   28.5200   27.7100   33.8900 C   0  0  0  0  0  0  0  0  0  0  0  0
   27.2700   27.0800   33.7600 C   0  0  0  0  0  0  0  0  0  0  0  0
   26.7500   26.8800   32.4900 N   0  0  0  0  0  0  0  0  0  0  0  0
   23.4148   25.1374   36.2800 C   0  0  0  0  0  0  0  0  0  0  0  0
   23.4966   23.9570   35.6208 N   0  0  0  0  0  0  0  0  0  0  0  0
   22.5697   22.9839   35.7524 C   0  0  0  0  0  0  0  0  0  0  0  0
   21.4802   23.1328   36.6239 C   0  0  0  0  0  0  0  0  0  0  0  0
   20.5540   21.9363   36.7307 C   0  0  0  0  0  0  0  0  0  0  0  0
   19.1490   22.3240   36.8506 N   0  0  0  0  0  0  0  0  0  0  0  0
   18.2328   22.2003   35.7140 C   0  0  0  0  0  0  0  0  0  0  0  0
   18.6515   22.7613   38.1194 C   0  0  0  0  0  0  0  0  0  0  0  0
   17.4270   22.6343   38.3964 O   0  0  0  0  0  0  0  0  0  0  0  0
   19.5744   23.4218   39.0976 C   0  0  0  0  0  0  0  0  0  0  0  0
   20.5016   22.5237   39.5956 F   0  0  0  0  0  0  0  0  0  0  0  0
   18.8331   23.8989   40.1679 F   0  0  0  0  0  0  0  0  0  0  0  0
   20.2764   24.6090   38.4293 C   0  0  0  0  0  0  0  0  0  0  0  0
   21.3824   24.3325   37.4010 C   0  0  0  0  0  0  0  0  0  0  0  0
   22.3228   25.3799   37.1445 C   0  0  0  0  0  0  0  0  0  0  0  0
   22.1823   26.7475   37.7863 C   0  0  0  0  0  0  0  0  0  0  0  0
  1  2  1  0
  2  3  2  0
  2  4  1  0
  4  5  2  0
  5  6  1  0
  6  7  2  0
  7  8  1  0
  8  9  2  0
  9 10  1  0
 10 11  2  0
 11 12  1  0
 12 13  2  0
 13 14  1  0
  1 15  1  0
 15 16  2  0
 16 17  1  0
 17 18  2  0
 18 19  1  0
 19 20  1  0
 20 21  1  0
 20 22  1  0
 22 23  2  0
 22 24  1  0
 24 25  1  0
 24 26  1  0
 24 27  1  0
 27 28  1  0
 28 29  2  0
 29 30  1  0
 13  4  1  0
 29 15  1  0
 12  7  1  0
 28 18  1  0
M  END
>  <AAScore>  (1) 
1014.8086996680164

>  <RootName>  (1) 
./4ZLY/04_DeltaGEst/trajectory_00/rank_00/lead_0476

$$$$
