confid_15
     RDKit          3D

 29 32  0  0  0  0  0  0  0  0999 V2000
   24.4800   26.1000   36.1300 N   0  0  0  0  0  0  0  0  0  0  0  0
   25.2500   26.2500   34.9900 C   0  0  0  0  0  0  0  0  0  0  0  0
   24.7400   25.7600   33.9900 O   0  0  0  0  0  0  0  0  0  0  0  0
   26.5900   26.8900   34.9600 C   0  0  0  0  0  0  0  0  0  0  0  0
   27.0600   27.2400   36.1600 N   0  0  0  0  0  0  0  0  0  0  0  0
   28.3000   27.7100   36.2400 N   0  0  0  0  0  0  0  0  0  0  0  0
   29.0500   27.9600   35.1500 C   0  0  0  0  0  0  0  0  0  0  0  0
   30.3400   28.4900   35.2600 C   0  0  0  0  0  0  0  0  0  0  0  0
   31.1100   28.8200   34.1400 C   0  0  0  0  0  0  0  0  0  0  0  0
   30.5200   28.6700   32.8800 C   0  0  0  0  0  0  0  0  0  0  0  0
   29.2900   28.0200   32.7700 C   0  0  0  0  0  0  0  0  0  0  0  0
   28.5200   27.7100   33.8900 C   0  0  0  0  0  0  0  0  0  0  0  0
   27.2700   27.0800   33.7600 C   0  0  0  0  0  0  0  0  0  0  0  0
   26.7500   26.8800   32.4900 N   0  0  0  0  0  0  0  0  0  0  0  0
   23.4490   25.1115   36.2882 C   0  0  0  0  0  0  0  0  0  0  0  0
   22.3353   25.3712   36.8925 N   0  0  0  0  0  0  0  0  0  0  0  0
   21.5528   24.1777   36.8480 C   0  0  0  0  0  0  0  0  0  0  0  0
   22.1940   23.1980   36.2215 C   0  0  0  0  0  0  0  0  0  0  0  0
   21.6500   21.8341   35.9512 C   0  0  0  0  0  0  0  0  0  0  0  0
   22.2163   21.3399   34.6878 N   0  0  0  0  0  0  0  0  0  0  0  0
   21.3850   20.2596   34.1232 C   0  0  0  0  0  0  0  0  0  0  0  0
   21.6741   20.0318   32.6215 C   0  0  0  0  0  0  0  0  0  0  0  0
   23.0642   19.4316   32.3684 C   0  0  0  0  0  0  0  0  0  0  0  0
   21.4796   21.3181   31.8078 C   0  0  0  0  0  0  0  0  0  0  0  0
   23.4609   20.8044   34.9645 O   0  0  0  0  0  0  0  0  0  0  0  0
   24.6063   21.5842   35.1623 C   0  0  0  0  0  0  0  0  0  0  0  0
   25.7273   21.0120   35.1313 O   0  0  0  0  0  0  0  0  0  0  0  0
   24.5744   23.0404   35.4084 C   0  0  0  0  0  0  0  0  0  0  0  0
   23.5028   23.7148   35.8447 C   0  0  0  0  0  0  0  0  0  0  0  0
  1  2  1  0
  2  3  2  0
  2  4  1  0
  4  5  2  0
  5  6  1  0
  6  7  2  0
  7  8  1  0
  8  9  2  0
  9 10  1  0
 10 11  2  0
 11 12  1  0
 12 13  2  0
 13 14  1  0
  1 15  1  0
 15 16  2  0
 16 17  1  0
 17 18  2  0
 18 19  1  0
 19 20  1  0
 20 21  1  0
 21 22  1  0
 22 23  1  0
 22 24  1  0
 20 25  1  0
 25 26  1  0
 26 27  2  0
 26 28  1  0
 28 29  2  0
 13  4  1  0
 29 15  1  0
 12  7  1  0
 29 18  1  0
M  END
>  <AAScore>  (1) 
1174.4402601989093

>  <RootName>  (1) 
./4ZLY/04_DeltaGEst/trajectory_00/rank_01/lead_0177

$$$$
