confid_11
     RDKit          3D

 28 31  0  0  0  0  0  0  0  0999 V2000
   25.3300   26.2600   34.7600 N   0  0  0  0  0  0  0  0  0  0  0  0
   26.1200   25.9200   33.6900 C   0  0  0  0  0  0  0  0  0  0  0  0
   25.6300   25.1100   32.9400 O   0  0  0  0  0  0  0  0  0  0  0  0
   27.5200   26.3800   33.4600 C   0  0  0  0  0  0  0  0  0  0  0  0
   28.1600   26.6300   34.6100 N   0  0  0  0  0  0  0  0  0  0  0  0
   29.4800   26.8500   34.5700 N   0  0  0  0  0  0  0  0  0  0  0  0
   30.1900   26.7800   33.4400 C   0  0  0  0  0  0  0  0  0  0  0  0
   31.5600   27.0500   33.5000 C   0  0  0  0  0  0  0  0  0  0  0  0
   32.2700   27.2400   32.3100 C   0  0  0  0  0  0  0  0  0  0  0  0
   31.6100   27.2500   31.0800 C   0  0  0  0  0  0  0  0  0  0  0  0
   30.2700   26.8700   31.0600 C   0  0  0  0  0  0  0  0  0  0  0  0
   29.5100   26.6900   32.2300 C   0  0  0  0  0  0  0  0  0  0  0  0
   28.1400   26.4100   32.2000 C   0  0  0  0  0  0  0  0  0  0  0  0
   27.4300   26.1300   31.0500 N   0  0  0  0  0  0  0  0  0  0  0  0
   26.4845   27.0977   30.5013 C   0  0  0  0  0  0  0  0  0  0  0  0
   27.0372   27.6248   29.1800 C   0  0  0  0  0  0  0  0  0  0  0  0
   27.5306   26.5419   28.3091 N   0  0  0  0  0  0  0  0  0  0  0  0
   27.8072   25.2174   28.8259 C   0  0  0  0  0  0  0  0  0  0  0  0
   28.1464   24.2888   28.0438 O   0  0  0  0  0  0  0  0  0  0  0  0
   27.6733   24.9054   30.2889 C   0  0  0  0  0  0  0  0  0  0  0  0
   27.9950   26.9054   26.9638 C   0  0  0  0  0  0  0  0  0  0  0  0
   29.4488   27.2988   27.0076 C   0  0  0  0  0  0  0  0  0  0  0  0
   30.4532   26.3305   26.8435 C   0  0  0  0  0  0  0  0  0  0  0  0
   31.8008   26.6862   26.9539 C   0  0  0  0  0  0  0  0  0  0  0  0
   32.1565   28.0095   27.2326 C   0  0  0  0  0  0  0  0  0  0  0  0
   31.1623   28.9784   27.4001 C   0  0  0  0  0  0  0  0  0  0  0  0
   29.8141   28.6257   27.2897 C   0  0  0  0  0  0  0  0  0  0  0  0
   33.8470   28.4508   27.3852 Cl  0  0  0  0  0  0  0  0  0  0  0  0
  1  2  1  0
  2  3  2  0
  2  4  1  0
  4  5  2  0
  5  6  1  0
  6  7  2  0
  7  8  1  0
  8  9  2  0
  9 10  1  0
 10 11  2  0
 11 12  1  0
 12 13  2  0
 13 14  1  0
 14 15  1  0
 15 16  1  0
 16 17  1  0
 17 18  1  0
 18 19  2  0
 18 20  1  0
 17 21  1  0
 21 22  1  0
 22 23  2  0
 23 24  1  0
 24 25  2  0
 25 26  1  0
 26 27  2  0
 25 28  1  0
 13  4  1  0
 20 14  1  0
 27 22  1  0
 12  7  1  0
M  END
>  <AAScore>  (1) 
-1.807864458759892

>  <RootName>  (1) 
./4ZLY/04_DeltaGEst/trajectory_03/rank_01/lead_0200

$$$$
