confid_3
     RDKit          3D

 29 32  0  0  0  0  0  0  0  0999 V2000
   24.6900   26.1200   35.5300 N   0  0  0  0  0  0  0  0  0  0  0  0
   25.6600   25.6700   34.6600 C   0  0  0  0  0  0  0  0  0  0  0  0
   25.2400   25.0100   33.7200 O   0  0  0  0  0  0  0  0  0  0  0  0
   27.0300   26.2200   34.8800 C   0  0  0  0  0  0  0  0  0  0  0  0
   27.3500   26.7300   36.0700 N   0  0  0  0  0  0  0  0  0  0  0  0
   28.5700   27.1800   36.3300 N   0  0  0  0  0  0  0  0  0  0  0  0
   29.5300   27.1100   35.3900 C   0  0  0  0  0  0  0  0  0  0  0  0
   30.8300   27.5700   35.6500 C   0  0  0  0  0  0  0  0  0  0  0  0
   31.8500   27.5400   34.6900 C   0  0  0  0  0  0  0  0  0  0  0  0
   31.5100   27.1200   33.4000 C   0  0  0  0  0  0  0  0  0  0  0  0
   30.2200   26.6300   33.1100 C   0  0  0  0  0  0  0  0  0  0  0  0
   29.2400   26.6600   34.1000 C   0  0  0  0  0  0  0  0  0  0  0  0
   27.9300   26.2600   33.8100 C   0  0  0  0  0  0  0  0  0  0  0  0
   27.5200   25.7100   32.6100 N   0  0  0  0  0  0  0  0  0  0  0  0
   31.1447   28.0688   36.9605 N   0  0  0  0  0  0  0  0  0  0  0  0
   31.5549   29.4681   37.1226 C   0  0  0  0  0  0  0  0  0  0  0  0
   31.4911   29.8812   38.5945 C   0  0  0  0  0  0  0  0  0  0  0  0
   30.3137   29.2448   39.2152 N   0  0  0  0  0  0  0  0  0  0  0  0
   30.0024   29.8482   40.5252 C   0  0  0  0  0  0  0  0  0  0  0  0
   29.3024   31.1597   40.3368 C   0  0  0  0  0  0  0  0  0  0  0  0
   29.7441   32.3978   40.7627 C   0  0  0  0  0  0  0  0  0  0  0  0
   28.7907   33.3073   40.3499 C   0  0  0  0  0  0  0  0  0  0  0  0
   27.7965   32.6683   39.6950 N   0  0  0  0  0  0  0  0  0  0  0  0
   26.6077   33.2760   39.0862 C   0  0  0  0  0  0  0  0  0  0  0  0
   25.7551   33.9709   40.1518 C   0  0  0  0  0  0  0  0  0  0  0  0
   27.0135   34.2529   37.9786 C   0  0  0  0  0  0  0  0  0  0  0  0
   28.1023   31.3559   39.6840 C   0  0  0  0  0  0  0  0  0  0  0  0
   30.5160   27.7841   39.3492 C   0  0  0  0  0  0  0  0  0  0  0  0
   31.1870   27.1550   38.1081 C   0  0  0  0  0  0  0  0  0  0  0  0
  1  2  1  0
  2  3  2  0
  2  4  1  0
  4  5  2  0
  5  6  1  0
  6  7  2  0
  7  8  1  0
  8  9  2  0
  9 10  1  0
 10 11  2  0
 11 12  1  0
 12 13  2  0
 13 14  1  0
  8 15  1  0
 15 16  1  0
 16 17  1  0
 17 18  1  0
 18 19  1  0
 19 20  1  0
 20 21  1  0
 21 22  2  0
 22 23  1  0
 23 24  1  0
 24 25  1  0
 24 26  1  0
 23 27  1  0
 18 28  1  0
 28 29  1  0
 13  4  1  0
 29 15  1  0
 12  7  1  0
 27 20  2  0
M  END
>  <AAScore>  (1) 
3.556586065311237

>  <RootName>  (1) 
./4ZLY/04_DeltaGEst/trajectory_02/rank_01/lead_0188

$$$$
