confid_14
     RDKit          3D

 28 31  0  0  0  0  0  0  0  0999 V2000
   25.3300   26.2600   34.7600 N   0  0  0  0  0  0  0  0  0  0  0  0
   26.1200   25.9200   33.6900 C   0  0  0  0  0  0  0  0  0  0  0  0
   25.6300   25.1100   32.9400 O   0  0  0  0  0  0  0  0  0  0  0  0
   27.5200   26.3800   33.4600 C   0  0  0  0  0  0  0  0  0  0  0  0
   28.1600   26.6300   34.6100 N   0  0  0  0  0  0  0  0  0  0  0  0
   29.4800   26.8500   34.5700 N   0  0  0  0  0  0  0  0  0  0  0  0
   30.1900   26.7800   33.4400 C   0  0  0  0  0  0  0  0  0  0  0  0
   31.5600   27.0500   33.5000 C   0  0  0  0  0  0  0  0  0  0  0  0
   32.2700   27.2400   32.3100 C   0  0  0  0  0  0  0  0  0  0  0  0
   31.6100   27.2500   31.0800 C   0  0  0  0  0  0  0  0  0  0  0  0
   30.2700   26.8700   31.0600 C   0  0  0  0  0  0  0  0  0  0  0  0
   29.5100   26.6900   32.2300 C   0  0  0  0  0  0  0  0  0  0  0  0
   28.1400   26.4100   32.2000 C   0  0  0  0  0  0  0  0  0  0  0  0
   27.4300   26.1300   31.0500 N   0  0  0  0  0  0  0  0  0  0  0  0
   24.2501   25.4616   35.2911 C   0  0  0  0  0  0  0  0  0  0  0  0
   24.0733   24.1764   34.8796 N   0  0  0  0  0  0  0  0  0  0  0  0
   23.0788   23.3886   35.3616 C   0  0  0  0  0  0  0  0  0  0  0  0
   22.1927   23.8780   36.3312 C   0  0  0  0  0  0  0  0  0  0  0  0
   20.9869   23.0493   36.7311 C   0  0  0  0  0  0  0  0  0  0  0  0
   19.7264   23.4737   36.0662 N   0  0  0  0  0  0  0  0  0  0  0  0
   18.5366   23.1596   36.8764 C   0  0  0  0  0  0  0  0  0  0  0  0
   19.6752   24.8294   35.4617 C   0  0  0  0  0  0  0  0  0  0  0  0
   19.4386   25.9761   36.4304 C   0  0  0  0  0  0  0  0  0  0  0  0
   20.2506   26.3914   37.3506 N   0  0  0  0  0  0  0  0  0  0  0  0
   21.4506   25.7613   37.8705 C   0  0  0  0  0  0  0  0  0  0  0  0
   22.3646   25.1973   36.8058 C   0  0  0  0  0  0  0  0  0  0  0  0
   23.3918   25.9938   36.2665 C   0  0  0  0  0  0  0  0  0  0  0  0
   23.5510   27.2779   36.6825 F   0  0  0  0  0  0  0  0  0  0  0  0
  1  2  1  0
  2  3  2  0
  2  4  1  0
  4  5  2  0
  5  6  1  0
  6  7  2  0
  7  8  1  0
  8  9  2  0
  9 10  1  0
 10 11  2  0
 11 12  1  0
 12 13  2  0
 13 14  1  0
  1 15  1  0
 15 16  2  0
 16 17  1  0
 17 18  2  0
 18 19  1  0
 19 20  1  0
 20 21  1  0
 20 22  1  0
 22 23  1  0
 23 24  2  0
 24 25  1  0
 25 26  1  0
 26 27  2  0
 27 28  1  0
 13  4  1  0
 27 15  1  0
 12  7  1  0
 26 18  1  0
M  END
>  <AAScore>  (1) 
2538.370792864177

>  <RootName>  (1) 
./4ZLY/04_DeltaGEst/trajectory_03/rank_00/lead_0060

$$$$
