confid_19
     RDKit          3D

 31 34  0  0  0  0  0  0  0  0999 V2000
   24.6900   26.1200   35.5300 N   0  0  0  0  0  0  0  0  0  0  0  0
   25.6600   25.6700   34.6600 C   0  0  0  0  0  0  0  0  0  0  0  0
   25.2400   25.0100   33.7200 O   0  0  0  0  0  0  0  0  0  0  0  0
   27.0300   26.2200   34.8800 C   0  0  0  0  0  0  0  0  0  0  0  0
   27.3500   26.7300   36.0700 N   0  0  0  0  0  0  0  0  0  0  0  0
   28.5700   27.1800   36.3300 N   0  0  0  0  0  0  0  0  0  0  0  0
   29.5300   27.1100   35.3900 C   0  0  0  0  0  0  0  0  0  0  0  0
   30.8300   27.5700   35.6500 C   0  0  0  0  0  0  0  0  0  0  0  0
   31.8500   27.5400   34.6900 C   0  0  0  0  0  0  0  0  0  0  0  0
   31.5100   27.1200   33.4000 C   0  0  0  0  0  0  0  0  0  0  0  0
   30.2200   26.6300   33.1100 C   0  0  0  0  0  0  0  0  0  0  0  0
   29.2400   26.6600   34.1000 C   0  0  0  0  0  0  0  0  0  0  0  0
   27.9300   26.2600   33.8100 C   0  0  0  0  0  0  0  0  0  0  0  0
   27.5200   25.7100   32.6100 N   0  0  0  0  0  0  0  0  0  0  0  0
   23.5020   25.6802   35.0113 C   0  0  0  0  0  0  0  0  0  0  0  0
   22.5647   25.3332   34.6020 N   0  0  0  0  0  0  0  0  0  0  0  0
   21.5540   24.7646   33.8548 C   0  0  0  0  0  0  0  0  0  0  0  0
   21.4676   23.3994   33.8094 C   0  0  0  0  0  0  0  0  0  0  0  0
   20.3482   22.8979   32.9952 C   0  0  0  0  0  0  0  0  0  0  0  0
   20.8908   22.2281   31.8360 N   0  0  0  0  0  0  0  0  0  0  0  0
   22.1452   21.4662   31.8089 C   0  0  0  0  0  0  0  0  0  0  0  0
   22.1741   20.6219   33.0607 C   0  0  0  0  0  0  0  0  0  0  0  0
   23.0324   21.3212   34.0848 C   0  0  0  0  0  0  0  0  0  0  0  0
   22.4322   22.5984   34.5098 N   0  0  0  0  0  0  0  0  0  0  0  0
   22.9886   22.9483   35.8054 C   0  0  0  0  0  0  0  0  0  0  0  0
   22.0805   23.7115   36.6976 C   0  0  0  0  0  0  0  0  0  0  0  0
   22.8339   24.9290   37.2612 C   0  0  0  0  0  0  0  0  0  0  0  0
   22.5089   26.1652   36.5610 C   0  0  0  0  0  0  0  0  0  0  0  0
   20.1754   22.2754   30.6361 C   0  0  0  0  0  0  0  0  0  0  0  0
   19.0766   22.8815   30.6000 O   0  0  0  0  0  0  0  0  0  0  0  0
   20.6707   21.6365   29.4025 C   0  0  0  0  0  0  0  0  0  0  0  0
  1  2  1  0
  2  3  2  0
  2  4  1  0
  4  5  2  0
  5  6  1  0
  6  7  2  0
  7  8  1  0
  8  9  2  0
  9 10  1  0
 10 11  2  0
 11 12  1  0
 12 13  2  0
 13 14  1  0
  1 15  1  0
 15 16  2  0
 16 17  1  0
 17 18  2  0
 18 19  1  0
 19 20  1  0
 20 21  1  0
 21 22  1  0
 22 23  1  0
 23 24  1  0
 24 25  1  0
 25 26  1  0
 26 27  1  0
 27 28  1  0
 20 29  1  0
 29 30  2  0
 29 31  1  0
 13  4  1  0
 28 15  1  0
 12  7  1  0
 24 18  1  0
M  END
>  <AAScore>  (1) 
4290.603808945533

>  <RootName>  (1) 
./4ZLY/04_DeltaGEst/trajectory_02/rank_00/lead_0256

$$$$
