confid_6
     RDKit          3D

 27 30  0  0  0  0  0  0  0  0999 V2000
   24.6900   26.1200   35.5300 N   0  0  0  0  0  0  0  0  0  0  0  0
   25.6600   25.6700   34.6600 C   0  0  0  0  0  0  0  0  0  0  0  0
   25.2400   25.0100   33.7200 O   0  0  0  0  0  0  0  0  0  0  0  0
   27.0300   26.2200   34.8800 C   0  0  0  0  0  0  0  0  0  0  0  0
   27.3500   26.7300   36.0700 N   0  0  0  0  0  0  0  0  0  0  0  0
   28.5700   27.1800   36.3300 N   0  0  0  0  0  0  0  0  0  0  0  0
   29.5300   27.1100   35.3900 C   0  0  0  0  0  0  0  0  0  0  0  0
   30.8300   27.5700   35.6500 C   0  0  0  0  0  0  0  0  0  0  0  0
   31.8500   27.5400   34.6900 C   0  0  0  0  0  0  0  0  0  0  0  0
   31.5100   27.1200   33.4000 C   0  0  0  0  0  0  0  0  0  0  0  0
   30.2200   26.6300   33.1100 C   0  0  0  0  0  0  0  0  0  0  0  0
   29.2400   26.6600   34.1000 C   0  0  0  0  0  0  0  0  0  0  0  0
   27.9300   26.2600   33.8100 C   0  0  0  0  0  0  0  0  0  0  0  0
   27.5200   25.7100   32.6100 N   0  0  0  0  0  0  0  0  0  0  0  0
   31.1466   28.0667   36.9627 N   0  0  0  0  0  0  0  0  0  0  0  0
   31.5564   29.4757   37.0959 C   0  0  0  0  0  0  0  0  0  0  0  0
   30.8852   30.1935   38.2821 C   0  0  0  0  0  0  0  0  0  0  0  0
   29.5284   29.6046   38.6334 C   0  0  0  0  0  0  0  0  0  0  0  0
   28.3207   30.2966   38.3696 C   0  0  0  0  0  0  0  0  0  0  0  0
   28.3088   31.6009   37.7517 C   0  0  0  0  0  0  0  0  0  0  0  0
   28.2983   32.6464   37.2556 N   0  0  0  0  0  0  0  0  0  0  0  0
   27.0923   29.7078   38.6953 C   0  0  0  0  0  0  0  0  0  0  0  0
   27.0467   28.4377   39.2679 C   0  0  0  0  0  0  0  0  0  0  0  0
   28.2259   27.7356   39.5112 C   0  0  0  0  0  0  0  0  0  0  0  0
   29.4699   28.3039   39.1949 C   0  0  0  0  0  0  0  0  0  0  0  0
   30.7326   27.4920   39.3821 C   0  0  0  0  0  0  0  0  0  0  0  0
   31.3769   27.0884   38.0414 C   0  0  0  0  0  0  0  0  0  0  0  0
  1  2  1  0
  2  3  2  0
  2  4  1  0
  4  5  2  0
  5  6  1  0
  6  7  2  0
  7  8  1  0
  8  9  2  0
  9 10  1  0
 10 11  2  0
 11 12  1  0
 12 13  2  0
 13 14  1  0
  8 15  1  0
 15 16  1  0
 16 17  1  0
 17 18  1  0
 18 19  2  0
 19 20  1  0
 20 21  3  0
 19 22  1  0
 22 23  2  0
 23 24  1  0
 24 25  2  0
 25 26  1  0
 26 27  1  0
 13  4  1  0
 27 15  1  0
 12  7  1  0
 25 18  1  0
M  END
>  <AAScore>  (1) 
-5.880991117858721

>  <RootName>  (1) 
./4ZLY/04_DeltaGEst/trajectory_02/rank_01/lead_0480

$$$$
