confid_8
     RDKit          3D

 28 31  0  0  0  0  0  0  0  0999 V2000
   24.6900   26.1200   35.5300 N   0  0  0  0  0  0  0  0  0  0  0  0
   25.6600   25.6700   34.6600 C   0  0  0  0  0  0  0  0  0  0  0  0
   25.2400   25.0100   33.7200 O   0  0  0  0  0  0  0  0  0  0  0  0
   27.0300   26.2200   34.8800 C   0  0  0  0  0  0  0  0  0  0  0  0
   27.3500   26.7300   36.0700 N   0  0  0  0  0  0  0  0  0  0  0  0
   28.5700   27.1800   36.3300 N   0  0  0  0  0  0  0  0  0  0  0  0
   29.5300   27.1100   35.3900 C   0  0  0  0  0  0  0  0  0  0  0  0
   30.8300   27.5700   35.6500 C   0  0  0  0  0  0  0  0  0  0  0  0
   31.8500   27.5400   34.6900 C   0  0  0  0  0  0  0  0  0  0  0  0
   31.5100   27.1200   33.4000 C   0  0  0  0  0  0  0  0  0  0  0  0
   30.2200   26.6300   33.1100 C   0  0  0  0  0  0  0  0  0  0  0  0
   29.2400   26.6600   34.1000 C   0  0  0  0  0  0  0  0  0  0  0  0
   27.9300   26.2600   33.8100 C   0  0  0  0  0  0  0  0  0  0  0  0
   27.5200   25.7100   32.6100 N   0  0  0  0  0  0  0  0  0  0  0  0
   31.1458   28.0636   36.9578 N   0  0  0  0  0  0  0  0  0  0  0  0
   30.9022   29.4775   37.2655 C   0  0  0  0  0  0  0  0  0  0  0  0
   31.4811   29.8603   38.6321 C   0  0  0  0  0  0  0  0  0  0  0  0
   31.1279   28.8506   39.6402 N   0  0  0  0  0  0  0  0  0  0  0  0
   30.8044   29.2534   40.9852 C   0  0  0  0  0  0  0  0  0  0  0  0
   29.6612   28.7369   41.6200 C   0  0  0  0  0  0  0  0  0  0  0  0
   29.3389   29.1250   42.9241 C   0  0  0  0  0  0  0  0  0  0  0  0
   28.2309   28.6258   43.5251 F   0  0  0  0  0  0  0  0  0  0  0  0
   30.1558   30.0290   43.6073 C   0  0  0  0  0  0  0  0  0  0  0  0
   31.2972   30.5444   42.9889 C   0  0  0  0  0  0  0  0  0  0  0  0
   31.6247   30.1612   41.6842 C   0  0  0  0  0  0  0  0  0  0  0  0
   32.7562   30.6510   41.1182 F   0  0  0  0  0  0  0  0  0  0  0  0
   31.2122   27.4162   39.3205 C   0  0  0  0  0  0  0  0  0  0  0  0
   31.8024   27.1832   37.9269 C   0  0  0  0  0  0  0  0  0  0  0  0
  1  2  1  0
  2  3  2  0
  2  4  1  0
  4  5  2  0
  5  6  1  0
  6  7  2  0
  7  8  1  0
  8  9  2  0
  9 10  1  0
 10 11  2  0
 11 12  1  0
 12 13  2  0
 13 14  1  0
  8 15  1  0
 15 16  1  0
 16 17  1  0
 17 18  1  0
 18 19  1  0
 19 20  2  0
 20 21  1  0
 21 22  1  0
 21 23  2  0
 23 24  1  0
 24 25  2  0
 25 26  1  0
 18 27  1  0
 27 28  1  0
 13  4  1  0
 28 15  1  0
 12  7  1  0
 25 19  1  0
M  END
>  <AAScore>  (1) 
4.833006368238637

>  <RootName>  (1) 
./4ZLY/04_DeltaGEst/trajectory_02/rank_01/lead_0238

$$$$
