confid_4
     RDKit          3D

 28 31  0  0  0  0  0  0  0  0999 V2000
   24.2000   26.2400   35.6900 N   0  0  0  0  0  0  0  0  0  0  0  0
   24.8500   26.2800   34.4800 C   0  0  0  0  0  0  0  0  0  0  0  0
   24.3100   25.7400   33.5400 O   0  0  0  0  0  0  0  0  0  0  0  0
   26.1800   26.9700   34.4700 C   0  0  0  0  0  0  0  0  0  0  0  0
   26.6500   27.6000   35.5500 N   0  0  0  0  0  0  0  0  0  0  0  0
   27.7900   28.2700   35.6200 N   0  0  0  0  0  0  0  0  0  0  0  0
   28.5400   28.3000   34.5100 C   0  0  0  0  0  0  0  0  0  0  0  0
   29.7700   28.9400   34.5600 C   0  0  0  0  0  0  0  0  0  0  0  0
   30.7000   28.8900   33.5000 C   0  0  0  0  0  0  0  0  0  0  0  0
   30.3700   28.1400   32.3700 C   0  0  0  0  0  0  0  0  0  0  0  0
   29.1200   27.5200   32.2800 C   0  0  0  0  0  0  0  0  0  0  0  0
   28.2100   27.6100   33.3300 C   0  0  0  0  0  0  0  0  0  0  0  0
   26.9700   26.9700   33.3100 C   0  0  0  0  0  0  0  0  0  0  0  0
   26.5300   26.2400   32.2200 N   0  0  0  0  0  0  0  0  0  0  0  0
   23.2311   25.2373   36.0607 C   0  0  0  0  0  0  0  0  0  0  0  0
   23.0286   24.1381   35.2685 N   0  0  0  0  0  0  0  0  0  0  0  0
   22.1282   23.1890   35.6301 C   0  0  0  0  0  0  0  0  0  0  0  0
   21.7944   21.9434   34.8896 C   0  0  0  0  0  0  0  0  0  0  0  0
   20.7198   21.2813   35.7902 C   0  0  0  0  0  0  0  0  0  0  0  0
   20.5576   22.1678   36.9453 N   0  0  0  0  0  0  0  0  0  0  0  0
   21.4118   23.2854   36.7826 C   0  0  0  0  0  0  0  0  0  0  0  0
   21.5713   24.3803   37.6322 C   0  0  0  0  0  0  0  0  0  0  0  0
   22.4996   25.3688   37.2680 C   0  0  0  0  0  0  0  0  0  0  0  0
   22.6819   26.4423   38.0781 F   0  0  0  0  0  0  0  0  0  0  0  0
   19.6180   21.9444   38.0430 C   0  0  0  0  0  0  0  0  0  0  0  0
   20.3637   21.4532   39.2844 C   0  0  0  0  0  0  0  0  0  0  0  0
   19.4259   21.2271   40.3896 C   0  0  0  0  0  0  0  0  0  0  0  0
   18.6848   21.0502   41.2612 N   0  0  0  0  0  0  0  0  0  0  0  0
  1  2  1  0
  2  3  2  0
  2  4  1  0
  4  5  2  0
  5  6  1  0
  6  7  2  0
  7  8  1  0
  8  9  2  0
  9 10  1  0
 10 11  2  0
 11 12  1  0
 12 13  2  0
 13 14  1  0
  1 15  1  0
 15 16  2  0
 16 17  1  0
 17 18  1  0
 18 19  1  0
 19 20  1  0
 20 21  1  0
 21 22  1  0
 22 23  2  0
 23 24  1  0
 20 25  1  0
 25 26  1  0
 26 27  1  0
 27 28  3  0
 13  4  1  0
 23 15  1  0
 12  7  1  0
 21 17  2  0
M  END
>  <AAScore>  (1) 
757.3070110871383

>  <RootName>  (1) 
./4ZLY/04_DeltaGEst/trajectory_04/rank_00/lead_0074

$$$$
