confid_17
     RDKit          3D

 27 30  0  0  0  0  0  0  0  0999 V2000
   24.6900   26.1200   35.5300 N   0  0  0  0  0  0  0  0  0  0  0  0
   25.6600   25.6700   34.6600 C   0  0  0  0  0  0  0  0  0  0  0  0
   25.2400   25.0100   33.7200 O   0  0  0  0  0  0  0  0  0  0  0  0
   27.0300   26.2200   34.8800 C   0  0  0  0  0  0  0  0  0  0  0  0
   27.3500   26.7300   36.0700 N   0  0  0  0  0  0  0  0  0  0  0  0
   28.5700   27.1800   36.3300 N   0  0  0  0  0  0  0  0  0  0  0  0
   29.5300   27.1100   35.3900 C   0  0  0  0  0  0  0  0  0  0  0  0
   30.8300   27.5700   35.6500 C   0  0  0  0  0  0  0  0  0  0  0  0
   31.8500   27.5400   34.6900 C   0  0  0  0  0  0  0  0  0  0  0  0
   31.5100   27.1200   33.4000 C   0  0  0  0  0  0  0  0  0  0  0  0
   30.2200   26.6300   33.1100 C   0  0  0  0  0  0  0  0  0  0  0  0
   29.2400   26.6600   34.1000 C   0  0  0  0  0  0  0  0  0  0  0  0
   27.9300   26.2600   33.8100 C   0  0  0  0  0  0  0  0  0  0  0  0
   27.5200   25.7100   32.6100 N   0  0  0  0  0  0  0  0  0  0  0  0
   31.1476   28.0632   36.9600 N   0  0  0  0  0  0  0  0  0  0  0  0
   31.3358   27.1060   38.0592 C   0  0  0  0  0  0  0  0  0  0  0  0
   30.9098   27.7237   39.3542 C   0  0  0  0  0  0  0  0  0  0  0  0
   30.3495   27.0168   40.2354 O   0  0  0  0  0  0  0  0  0  0  0  0
   31.1484   29.1241   39.5707 N   0  0  0  0  0  0  0  0  0  0  0  0
   30.8315   29.7566   40.8237 C   0  0  0  0  0  0  0  0  0  0  0  0
   31.3060   29.2224   42.0339 C   0  0  0  0  0  0  0  0  0  0  0  0
   31.0007   29.8465   43.2475 C   0  0  0  0  0  0  0  0  0  0  0  0
   30.2219   31.0072   43.2616 C   0  0  0  0  0  0  0  0  0  0  0  0
   29.7485   31.5462   42.0621 C   0  0  0  0  0  0  0  0  0  0  0  0
   30.0526   30.9252   40.8466 C   0  0  0  0  0  0  0  0  0  0  0  0
   31.8714   29.8637   38.5321 C   0  0  0  0  0  0  0  0  0  0  0  0
   31.3239   29.5140   37.1417 C   0  0  0  0  0  0  0  0  0  0  0  0
  1  2  1  0
  2  3  2  0
  2  4  1  0
  4  5  2  0
  5  6  1  0
  6  7  2  0
  7  8  1  0
  8  9  2  0
  9 10  1  0
 10 11  2  0
 11 12  1  0
 12 13  2  0
 13 14  1  0
  8 15  1  0
 15 16  1  0
 16 17  1  0
 17 18  2  0
 17 19  1  0
 19 20  1  0
 20 21  2  0
 21 22  1  0
 22 23  2  0
 23 24  1  0
 24 25  2  0
 19 26  1  0
 26 27  1  0
 13  4  1  0
 27 15  1  0
 12  7  1  0
 25 20  1  0
M  END
>  <AAScore>  (1) 
-4.380917816683799

>  <RootName>  (1) 
./4ZLY/04_DeltaGEst/trajectory_02/rank_01/lead_0313

$$$$
