confid_2
     RDKit          3D

 30 33  0  0  0  0  0  0  0  0999 V2000
   24.5500   26.3900   36.2500 N   0  0  0  0  0  0  0  0  0  0  0  0
   25.6000   26.1300   35.4000 C   0  0  0  0  0  0  0  0  0  0  0  0
   25.4300   25.4300   34.4200 O   0  0  0  0  0  0  0  0  0  0  0  0
   26.9800   26.6300   35.7100 C   0  0  0  0  0  0  0  0  0  0  0  0
   27.3200   26.8200   36.9800 N   0  0  0  0  0  0  0  0  0  0  0  0
   28.4700   27.4000   37.3100 N   0  0  0  0  0  0  0  0  0  0  0  0
   29.4000   27.6300   36.3700 C   0  0  0  0  0  0  0  0  0  0  0  0
   30.6600   28.0500   36.8000 C   0  0  0  0  0  0  0  0  0  0  0  0
   31.5700   28.3600   35.7800 C   0  0  0  0  0  0  0  0  0  0  0  0
   31.3700   28.1000   34.4300 C   0  0  0  0  0  0  0  0  0  0  0  0
   30.1200   27.5900   34.0500 C   0  0  0  0  0  0  0  0  0  0  0  0
   29.1500   27.3400   35.0300 C   0  0  0  0  0  0  0  0  0  0  0  0
   27.8800   26.8900   34.6600 C   0  0  0  0  0  0  0  0  0  0  0  0
   27.4800   26.6100   33.3700 N   0  0  0  0  0  0  0  0  0  0  0  0
   23.2063   25.7990   36.1363 C   0  0  0  0  0  0  0  0  0  0  0  0
   22.4663   26.3452   34.8993 C   0  0  0  0  0  0  0  0  0  0  0  0
   21.1876   25.5454   34.6225 C   0  0  0  0  0  0  0  0  0  0  0  0
   21.4665   24.1030   34.4958 N   0  0  0  0  0  0  0  0  0  0  0  0
   20.5317   23.2392   33.8195 C   0  0  0  0  0  0  0  0  0  0  0  0
   20.9309   22.1456   33.3338 O   0  0  0  0  0  0  0  0  0  0  0  0
   19.0939   23.6446   33.6207 C   0  0  0  0  0  0  0  0  0  0  0  0
   18.2527   22.4564   33.3537 N   0  0  0  0  0  0  0  0  0  0  0  0
   17.8470   21.7457   34.5873 C   0  0  0  0  0  0  0  0  0  0  0  0
   16.7018   22.4498   35.3328 C   0  0  0  0  0  0  0  0  0  0  0  0
   15.5706   22.8141   34.3715 C   0  0  0  0  0  0  0  0  0  0  0  0
   16.1010   23.5823   33.2333 N   0  0  0  0  0  0  0  0  0  0  0  0
   15.0027   23.9682   32.3337 C   0  0  0  0  0  0  0  0  0  0  0  0
   17.0872   22.7644   32.5009 C   0  0  0  0  0  0  0  0  0  0  0  0
   22.7737   23.5704   34.9094 C   0  0  0  0  0  0  0  0  0  0  0  0
   23.2532   24.2480   36.2003 C   0  0  0  0  0  0  0  0  0  0  0  0
  1  2  1  0
  2  3  2  0
  2  4  1  0
  4  5  2  0
  5  6  1  0
  6  7  2  0
  7  8  1  0
  8  9  2  0
  9 10  1  0
 10 11  2  0
 11 12  1  0
 12 13  2  0
 13 14  1  0
  1 15  1  0
 15 16  1  0
 16 17  1  0
 17 18  1  0
 18 19  1  0
 19 20  2  0
 19 21  1  0
 21 22  1  0
 22 23  1  0
 23 24  1  0
 24 25  1  0
 25 26  1  0
 26 27  1  0
 26 28  1  0
 18 29  1  0
 29 30  1  0
 13  4  1  0
 30 15  1  0
 12  7  1  0
 28 22  1  0
M  END
>  <AAScore>  (1) 
475.31111064359527

>  <RootName>  (1) 
./4ZLY/04_DeltaGEst/trajectory_01/rank_00/lead_0314

$$$$
