confid_1
     RDKit          3D

 29 33  0  0  0  0  0  0  0  0999 V2000
   25.3300   26.2600   34.7600 N   0  0  0  0  0  0  0  0  0  0  0  0
   26.1200   25.9200   33.6900 C   0  0  0  0  0  0  0  0  0  0  0  0
   25.6300   25.1100   32.9400 O   0  0  0  0  0  0  0  0  0  0  0  0
   27.5200   26.3800   33.4600 C   0  0  0  0  0  0  0  0  0  0  0  0
   28.1600   26.6300   34.6100 N   0  0  0  0  0  0  0  0  0  0  0  0
   29.4800   26.8500   34.5700 N   0  0  0  0  0  0  0  0  0  0  0  0
   30.1900   26.7800   33.4400 C   0  0  0  0  0  0  0  0  0  0  0  0
   31.5600   27.0500   33.5000 C   0  0  0  0  0  0  0  0  0  0  0  0
   32.2700   27.2400   32.3100 C   0  0  0  0  0  0  0  0  0  0  0  0
   31.6100   27.2500   31.0800 C   0  0  0  0  0  0  0  0  0  0  0  0
   30.2700   26.8700   31.0600 C   0  0  0  0  0  0  0  0  0  0  0  0
   29.5100   26.6900   32.2300 C   0  0  0  0  0  0  0  0  0  0  0  0
   28.1400   26.4100   32.2000 C   0  0  0  0  0  0  0  0  0  0  0  0
   27.4300   26.1300   31.0500 N   0  0  0  0  0  0  0  0  0  0  0  0
   27.6440   24.8286   30.3951 C   0  0  0  0  0  0  0  0  0  0  0  0
   26.8632   24.6653   29.0872 C   0  0  0  0  0  0  0  0  0  0  0  0
   27.3048   25.6451   28.0375 C   0  0  0  0  0  0  0  0  0  0  0  0
   27.5960   25.2583   26.7792 N   0  0  0  0  0  0  0  0  0  0  0  0
   27.8912   26.3480   26.0904 N   0  0  0  0  0  0  0  0  0  0  0  0
   27.7751   27.3881   26.9380 C   0  0  0  0  0  0  0  0  0  0  0  0
   28.0248   28.7499   26.5378 N   0  0  0  0  0  0  0  0  0  0  0  0
   27.7295   29.1623   25.1611 C   0  0  0  0  0  0  0  0  0  0  0  0
   29.0328   29.4192   24.3874 C   0  0  0  0  0  0  0  0  0  0  0  0
   30.1474   30.0362   25.2617 C   0  0  0  0  0  0  0  0  0  0  0  0
   29.6006   30.6777   26.5434 C   0  0  0  0  0  0  0  0  0  0  0  0
   28.8434   29.6359   27.3822 C   0  0  0  0  0  0  0  0  0  0  0  0
   27.3953   26.9925   28.1766 N   0  0  0  0  0  0  0  0  0  0  0  0
   27.1002   27.8648   29.3263 C   0  0  0  0  0  0  0  0  0  0  0  0
   26.4964   27.1388   30.5274 C   0  0  0  0  0  0  0  0  0  0  0  0
  1  2  1  0
  2  3  2  0
  2  4  1  0
  4  5  2  0
  5  6  1  0
  6  7  2  0
  7  8  1  0
  8  9  2  0
  9 10  1  0
 10 11  2  0
 11 12  1  0
 12 13  2  0
 13 14  1  0
 14 15  1  0
 15 16  1  0
 16 17  1  0
 17 18  2  0
 18 19  1  0
 19 20  2  0
 20 21  1  0
 21 22  1  0
 22 23  1  0
 23 24  1  0
 24 25  1  0
 25 26  1  0
 20 27  1  0
 27 28  1  0
 28 29  1  0
 13  4  1  0
 29 14  1  0
 12  7  1  0
 27 17  1  0
 26 21  1  0
M  END
>  <AAScore>  (1) 
0.632197772900792

>  <RootName>  (1) 
./4ZLY/04_DeltaGEst/trajectory_03/rank_01/lead_0484

$$$$
