confid_18
     RDKit          3D

 28 32  0  0  0  0  0  0  0  0999 V2000
   24.2000   26.2400   35.6900 N   0  0  0  0  0  0  0  0  0  0  0  0
   24.8500   26.2800   34.4800 C   0  0  0  0  0  0  0  0  0  0  0  0
   24.3100   25.7400   33.5400 O   0  0  0  0  0  0  0  0  0  0  0  0
   26.1800   26.9700   34.4700 C   0  0  0  0  0  0  0  0  0  0  0  0
   26.6500   27.6000   35.5500 N   0  0  0  0  0  0  0  0  0  0  0  0
   27.7900   28.2700   35.6200 N   0  0  0  0  0  0  0  0  0  0  0  0
   28.5400   28.3000   34.5100 C   0  0  0  0  0  0  0  0  0  0  0  0
   29.7700   28.9400   34.5600 C   0  0  0  0  0  0  0  0  0  0  0  0
   30.7000   28.8900   33.5000 C   0  0  0  0  0  0  0  0  0  0  0  0
   30.3700   28.1400   32.3700 C   0  0  0  0  0  0  0  0  0  0  0  0
   29.1200   27.5200   32.2800 C   0  0  0  0  0  0  0  0  0  0  0  0
   28.2100   27.6100   33.3300 C   0  0  0  0  0  0  0  0  0  0  0  0
   26.9700   26.9700   33.3100 C   0  0  0  0  0  0  0  0  0  0  0  0
   26.5300   26.2400   32.2200 N   0  0  0  0  0  0  0  0  0  0  0  0
   22.7737   26.1304   35.8439 C   0  0  0  0  0  0  0  0  0  0  0  0
   22.2725   25.5423   36.9724 N   0  0  0  0  0  0  0  0  0  0  0  0
   20.9305   25.4383   37.1489 C   0  0  0  0  0  0  0  0  0  0  0  0
   20.2208   24.8360   38.3101 C   0  0  0  0  0  0  0  0  0  0  0  0
   18.7254   24.9845   37.9208 C   0  0  0  0  0  0  0  0  0  0  0  0
   18.7164   25.7054   36.6380 N   0  0  0  0  0  0  0  0  0  0  0  0
   20.0508   25.9183   36.2297 C   0  0  0  0  0  0  0  0  0  0  0  0
   20.4961   26.5518   35.0740 C   0  0  0  0  0  0  0  0  0  0  0  0
   21.8802   26.6627   34.8779 C   0  0  0  0  0  0  0  0  0  0  0  0
   17.5981   25.9580   35.8079 N   0  0  0  0  0  0  0  0  0  0  0  0
   16.5625   26.6794   36.5516 C   0  0  0  0  0  0  0  0  0  0  0  0
   15.5458   25.6644   37.0493 C   0  0  0  0  0  0  0  0  0  0  0  0
   15.7750   24.4132   36.2222 C   0  0  0  0  0  0  0  0  0  0  0  0
   17.0004   24.6951   35.3611 C   0  0  0  0  0  0  0  0  0  0  0  0
  1  2  1  0
  2  3  2  0
  2  4  1  0
  4  5  2  0
  5  6  1  0
  6  7  2  0
  7  8  1  0
  8  9  2  0
  9 10  1  0
 10 11  2  0
 11 12  1  0
 12 13  2  0
 13 14  1  0
  1 15  1  0
 15 16  2  0
 16 17  1  0
 17 18  1  0
 18 19  1  0
 19 20  1  0
 20 21  1  0
 21 22  1  0
 22 23  2  0
 20 24  1  0
 24 25  1  0
 25 26  1  0
 26 27  1  0
 27 28  1  0
 13  4  1  0
 23 15  1  0
 28 24  1  0
 12  7  1  0
 21 17  2  0
M  END
>  <AAScore>  (1) 
82.590529472024

>  <RootName>  (1) 
./4ZLY/04_DeltaGEst/trajectory_04/rank_00/lead_0088

$$$$
