confid_4
     RDKit          3D

 27 30  0  0  0  0  0  0  0  0999 V2000
   24.5700   26.8800   35.5900 N   0  0  0  0  0  0  0  0  0  0  0  0
   25.5000   26.4000   34.6900 C   0  0  0  0  0  0  0  0  0  0  0  0
   25.1700   25.5200   33.9100 O   0  0  0  0  0  0  0  0  0  0  0  0
   26.8400   27.0200   34.7400 C   0  0  0  0  0  0  0  0  0  0  0  0
   27.3800   27.2800   35.9400 N   0  0  0  0  0  0  0  0  0  0  0  0
   28.6200   27.7400   36.0300 N   0  0  0  0  0  0  0  0  0  0  0  0
   29.3800   28.0000   34.9600 C   0  0  0  0  0  0  0  0  0  0  0  0
   30.6700   28.5000   35.1300 C   0  0  0  0  0  0  0  0  0  0  0  0
   31.5400   28.6100   34.0300 C   0  0  0  0  0  0  0  0  0  0  0  0
   31.0900   28.2200   32.7700 C   0  0  0  0  0  0  0  0  0  0  0  0
   29.8000   27.7000   32.6000 C   0  0  0  0  0  0  0  0  0  0  0  0
   28.9600   27.5500   33.7100 C   0  0  0  0  0  0  0  0  0  0  0  0
   27.6600   27.0300   33.5900 C   0  0  0  0  0  0  0  0  0  0  0  0
   27.1600   26.7400   32.3400 N   0  0  0  0  0  0  0  0  0  0  0  0
   33.1585   29.2674   34.2405 S   0  0  0  0  0  6  0  0  0  0  0  0
   34.0675   28.7278   33.1722 O   0  0  0  0  0  0  0  0  0  0  0  0
   33.6967   28.8500   35.5817 O   0  0  0  0  0  0  0  0  0  0  0  0
   33.0735   31.0497   34.0912 C   0  0  2  0  0  0  0  0  0  0  0  0
   34.1067   31.8151   34.9112 C   0  0  1  0  0  0  0  0  0  0  0  0
   34.6019   33.1348   34.3442 C   0  0  0  0  0  0  0  0  0  0  0  0
   35.9310   33.5034   34.6141 C   0  0  0  0  0  0  0  0  0  0  0  0
   36.4537   34.7022   34.1212 C   0  0  0  0  0  0  0  0  0  0  0  0
   35.6569   35.5502   33.3510 C   0  0  0  0  0  0  0  0  0  0  0  0
   34.3334   35.2011   33.0712 C   0  0  0  0  0  0  0  0  0  0  0  0
   33.3333   36.2686   32.1026 Cl  0  0  0  0  0  0  0  0  0  0  0  0
   33.8050   34.0017   33.5625 C   0  0  0  0  0  0  0  0  0  0  0  0
   32.6516   31.7652   35.3718 C   0  0  0  0  0  0  0  0  0  0  0  0
  1  2  1  0
  2  3  2  0
  2  4  1  0
  4  5  2  0
  5  6  1  0
  6  7  2  0
  7  8  1  0
  8  9  2  0
  9 10  1  0
 10 11  2  0
 11 12  1  0
 12 13  2  0
 13 14  1  0
  9 15  1  0
 15 16  2  0
 15 17  2  0
 18 15  1  1
 18 19  1  0
 19 20  1  6
 20 21  2  0
 21 22  1  0
 22 23  2  0
 23 24  1  0
 24 25  1  0
 24 26  2  0
 19 27  1  0
 13  4  1  0
 27 18  1  0
 12  7  1  0
 26 20  1  0
M  END
>  <AAScore>  (1) 
-6.265702358995886

>  <RootName>  (1) 
./4ZLY/04_DeltaGEst/trajectory_05/rank_01/lead_0355

$$$$
