confid_11
     RDKit          3D

 29 33  0  0  0  0  0  0  0  0999 V2000
   24.2000   26.2400   35.6900 N   0  0  0  0  0  0  0  0  0  0  0  0
   24.8500   26.2800   34.4800 C   0  0  0  0  0  0  0  0  0  0  0  0
   24.3100   25.7400   33.5400 O   0  0  0  0  0  0  0  0  0  0  0  0
   26.1800   26.9700   34.4700 C   0  0  0  0  0  0  0  0  0  0  0  0
   26.6500   27.6000   35.5500 N   0  0  0  0  0  0  0  0  0  0  0  0
   27.7900   28.2700   35.6200 N   0  0  0  0  0  0  0  0  0  0  0  0
   28.5400   28.3000   34.5100 C   0  0  0  0  0  0  0  0  0  0  0  0
   29.7700   28.9400   34.5600 C   0  0  0  0  0  0  0  0  0  0  0  0
   30.7000   28.8900   33.5000 C   0  0  0  0  0  0  0  0  0  0  0  0
   30.3700   28.1400   32.3700 C   0  0  0  0  0  0  0  0  0  0  0  0
   29.1200   27.5200   32.2800 C   0  0  0  0  0  0  0  0  0  0  0  0
   28.2100   27.6100   33.3300 C   0  0  0  0  0  0  0  0  0  0  0  0
   26.9700   26.9700   33.3100 C   0  0  0  0  0  0  0  0  0  0  0  0
   26.5300   26.2400   32.2200 N   0  0  0  0  0  0  0  0  0  0  0  0
   22.7696   26.1389   35.8356 C   0  0  0  0  0  0  0  0  0  0  0  0
   21.9475   26.2939   34.7503 N   0  0  0  0  0  0  0  0  0  0  0  0
   20.5914   26.2018   34.8456 C   0  0  0  0  0  0  0  0  0  0  0  0
   20.0228   25.9650   36.0931 C   0  0  0  0  0  0  0  0  0  0  0  0
   18.5893   25.7542   36.4273 C   0  0  0  0  0  0  0  0  0  0  0  0
   18.6216   25.4456   37.9430 C   0  0  0  0  0  0  0  0  0  0  0  0
   20.0198   25.5791   38.3572 N   0  0  0  0  0  0  0  0  0  0  0  0
   20.4006   25.7521   39.7294 C   0  0  0  0  0  0  0  0  0  0  0  0
   19.8939   24.9964   40.6035 O   0  0  0  0  0  0  0  0  0  0  0  0
   21.3257   26.8760   40.1295 C   0  0  0  0  0  0  0  0  0  0  0  0
   22.4247   26.4903   41.1083 C   0  0  0  0  0  0  0  0  0  0  0  0
   21.2499   27.3323   41.5808 C   0  0  0  0  0  0  0  0  0  0  0  0
   20.8067   25.8521   37.2048 C   0  0  0  0  0  0  0  0  0  0  0  0
   22.2032   25.8968   37.1055 C   0  0  0  0  0  0  0  0  0  0  0  0
   22.9940   25.6516   38.1791 F   0  0  0  0  0  0  0  0  0  0  0  0
  1  2  1  0
  2  3  2  0
  2  4  1  0
  4  5  2  0
  5  6  1  0
  6  7  2  0
  7  8  1  0
  8  9  2  0
  9 10  1  0
 10 11  2  0
 11 12  1  0
 12 13  2  0
 13 14  1  0
  1 15  1  0
 15 16  2  0
 16 17  1  0
 17 18  2  0
 18 19  1  0
 19 20  1  0
 20 21  1  0
 21 22  1  0
 22 23  2  0
 22 24  1  0
 24 25  1  0
 25 26  1  0
 21 27  1  0
 27 28  2  0
 28 29  1  0
 13  4  1  0
 28 15  1  0
 12  7  1  0
 27 18  1  0
 26 24  1  0
M  END
>  <AAScore>  (1) 
102.17087652756103

>  <RootName>  (1) 
./4ZLY/04_DeltaGEst/trajectory_04/rank_00/lead_0120

$$$$
