confid_3
     RDKit          3D

 29 32  0  0  0  0  0  0  0  0999 V2000
   24.5700   26.8800   35.5900 N   0  0  0  0  0  0  0  0  0  0  0  0
   25.5000   26.4000   34.6900 C   0  0  0  0  0  0  0  0  0  0  0  0
   25.1700   25.5200   33.9100 O   0  0  0  0  0  0  0  0  0  0  0  0
   26.8400   27.0200   34.7400 C   0  0  0  0  0  0  0  0  0  0  0  0
   27.3800   27.2800   35.9400 N   0  0  0  0  0  0  0  0  0  0  0  0
   28.6200   27.7400   36.0300 N   0  0  0  0  0  0  0  0  0  0  0  0
   29.3800   28.0000   34.9600 C   0  0  0  0  0  0  0  0  0  0  0  0
   30.6700   28.5000   35.1300 C   0  0  0  0  0  0  0  0  0  0  0  0
   31.5400   28.6100   34.0300 C   0  0  0  0  0  0  0  0  0  0  0  0
   31.0900   28.2200   32.7700 C   0  0  0  0  0  0  0  0  0  0  0  0
   29.8000   27.7000   32.6000 C   0  0  0  0  0  0  0  0  0  0  0  0
   28.9600   27.5500   33.7100 C   0  0  0  0  0  0  0  0  0  0  0  0
   27.6600   27.0300   33.5900 C   0  0  0  0  0  0  0  0  0  0  0  0
   27.1600   26.7400   32.3400 N   0  0  0  0  0  0  0  0  0  0  0  0
   33.1787   29.2233   34.2296 S   0  0  0  0  0  6  0  0  0  0  0  0
   33.4739   29.4571   35.6858 O   0  0  0  0  0  0  0  0  0  0  0  0
   33.2881   30.5353   33.5053 O   0  0  0  0  0  0  0  0  0  0  0  0
   34.3659   28.0672   33.5186 C   0  0  1  0  0  0  0  0  0  0  0  0
   35.7908   28.3044   33.9927 C   0  0  0  0  0  0  0  0  0  0  0  0
   35.8992   26.9725   34.6193 N   0  0  0  0  0  0  0  0  0  0  0  0
   34.5303   26.6810   34.1531 C   0  0  1  0  0  0  0  0  0  0  0  0
   33.6246   26.3106   35.3316 C   0  0  0  0  0  0  0  0  0  0  0  0
   36.9269   26.1199   33.9711 C   0  0  2  0  0  0  0  0  0  0  0  0
   36.8377   24.6762   34.5128 C   0  0  0  0  0  0  0  0  0  0  0  0
   37.8421   23.7334   33.8179 C   0  0  0  0  0  0  0  0  0  0  0  0
   39.1275   24.4505   33.3377 C   0  0  2  0  0  0  0  0  0  0  0  0
   40.3029   23.4702   33.2533 C   0  0  0  0  0  0  0  0  0  0  0  0
   39.4670   25.6375   34.2535 C   0  0  0  0  0  0  0  0  0  0  0  0
   38.3450   26.6967   34.2468 C   0  0  0  0  0  0  0  0  0  0  0  0
  1  2  1  0
  2  3  2  0
  2  4  1  0
  4  5  2  0
  5  6  1  0
  6  7  2  0
  7  8  1  0
  8  9  2  0
  9 10  1  0
 10 11  2  0
 11 12  1  0
 12 13  2  0
 13 14  1  0
  9 15  1  0
 15 16  2  0
 15 17  2  0
 18 15  1  1
 18 19  1  0
 19 20  1  0
 20 21  1  0
 21 22  1  1
 23 20  1  1
 23 24  1  0
 24 25  1  0
 25 26  1  0
 26 27  1  1
 26 28  1  0
 28 29  1  0
 13  4  1  0
 21 18  1  0
 29 23  1  0
 12  7  1  0
M  END
>  <AAScore>  (1) 
516.4627245000336

>  <RootName>  (1) 
./4ZLY/04_DeltaGEst/trajectory_05/rank_01/lead_0085

$$$$
