confid_3
     RDKit          3D

 29 32  0  0  0  0  0  0  0  0999 V2000
   25.3300   26.2600   34.7600 N   0  0  0  0  0  0  0  0  0  0  0  0
   26.1200   25.9200   33.6900 C   0  0  0  0  0  0  0  0  0  0  0  0
   25.6300   25.1100   32.9400 O   0  0  0  0  0  0  0  0  0  0  0  0
   27.5200   26.3800   33.4600 C   0  0  0  0  0  0  0  0  0  0  0  0
   28.1600   26.6300   34.6100 N   0  0  0  0  0  0  0  0  0  0  0  0
   29.4800   26.8500   34.5700 N   0  0  0  0  0  0  0  0  0  0  0  0
   30.1900   26.7800   33.4400 C   0  0  0  0  0  0  0  0  0  0  0  0
   31.5600   27.0500   33.5000 C   0  0  0  0  0  0  0  0  0  0  0  0
   32.2700   27.2400   32.3100 C   0  0  0  0  0  0  0  0  0  0  0  0
   31.6100   27.2500   31.0800 C   0  0  0  0  0  0  0  0  0  0  0  0
   30.2700   26.8700   31.0600 C   0  0  0  0  0  0  0  0  0  0  0  0
   29.5100   26.6900   32.2300 C   0  0  0  0  0  0  0  0  0  0  0  0
   28.1400   26.4100   32.2000 C   0  0  0  0  0  0  0  0  0  0  0  0
   27.4300   26.1300   31.0500 N   0  0  0  0  0  0  0  0  0  0  0  0
   26.5209   27.1361   30.4927 C   0  0  0  0  0  0  0  0  0  0  0  0
   26.6365   27.1513   28.9666 C   0  0  0  0  0  0  0  0  0  0  0  0
   26.5368   25.7951   28.4001 N   0  0  0  0  0  0  0  0  0  0  0  0
   26.2761   25.6348   26.9882 C   0  0  0  0  0  0  0  0  0  0  0  0
   26.9017   26.4687   26.0467 C   0  0  0  0  0  0  0  0  0  0  0  0
   26.6325   26.3023   24.6876 C   0  0  0  0  0  0  0  0  0  0  0  0
   25.7669   25.3401   24.2764 N   0  0  0  0  0  0  0  0  0  0  0  0
   25.1384   24.5125   25.1563 C   0  0  0  0  0  0  0  0  0  0  0  0
   24.2214   23.5119   24.6857 N   0  0  0  0  0  0  0  0  0  0  0  0
   23.9604   23.2914   23.2590 C   0  0  0  0  0  0  0  0  0  0  0  0
   22.6466   22.5259   23.0708 C   0  0  0  0  0  0  0  0  0  0  0  0
   25.1227   22.5209   22.6254 C   0  0  0  0  0  0  0  0  0  0  0  0
   25.3828   24.6506   26.5296 C   0  0  0  0  0  0  0  0  0  0  0  0
   26.5523   24.6208   29.2870 C   0  0  0  0  0  0  0  0  0  0  0  0
   27.5668   24.8093   30.4202 C   0  0  0  0  0  0  0  0  0  0  0  0
  1  2  1  0
  2  3  2  0
  2  4  1  0
  4  5  2  0
  5  6  1  0
  6  7  2  0
  7  8  1  0
  8  9  2  0
  9 10  1  0
 10 11  2  0
 11 12  1  0
 12 13  2  0
 13 14  1  0
 14 15  1  0
 15 16  1  0
 16 17  1  0
 17 18  1  0
 18 19  2  0
 19 20  1  0
 20 21  2  0
 21 22  1  0
 22 23  1  0
 23 24  1  0
 24 25  1  0
 24 26  1  0
 22 27  2  0
 17 28  1  0
 28 29  1  0
 13  4  1  0
 29 14  1  0
 12  7  1  0
 27 18  1  0
M  END
>  <AAScore>  (1) 
3.2802543825924078

>  <RootName>  (1) 
./4ZLY/04_DeltaGEst/trajectory_03/rank_01/lead_0071

$$$$
