confid_2
     RDKit          3D

 27 30  0  0  0  0  0  0  0  0999 V2000
   25.3300   26.2600   34.7600 N   0  0  0  0  0  0  0  0  0  0  0  0
   26.1200   25.9200   33.6900 C   0  0  0  0  0  0  0  0  0  0  0  0
   25.6300   25.1100   32.9400 O   0  0  0  0  0  0  0  0  0  0  0  0
   27.5200   26.3800   33.4600 C   0  0  0  0  0  0  0  0  0  0  0  0
   28.1600   26.6300   34.6100 N   0  0  0  0  0  0  0  0  0  0  0  0
   29.4800   26.8500   34.5700 N   0  0  0  0  0  0  0  0  0  0  0  0
   30.1900   26.7800   33.4400 C   0  0  0  0  0  0  0  0  0  0  0  0
   31.5600   27.0500   33.5000 C   0  0  0  0  0  0  0  0  0  0  0  0
   32.2700   27.2400   32.3100 C   0  0  0  0  0  0  0  0  0  0  0  0
   31.6100   27.2500   31.0800 C   0  0  0  0  0  0  0  0  0  0  0  0
   30.2700   26.8700   31.0600 C   0  0  0  0  0  0  0  0  0  0  0  0
   29.5100   26.6900   32.2300 C   0  0  0  0  0  0  0  0  0  0  0  0
   28.1400   26.4100   32.2000 C   0  0  0  0  0  0  0  0  0  0  0  0
   27.4300   26.1300   31.0500 N   0  0  0  0  0  0  0  0  0  0  0  0
   24.2053   25.4933   35.2449 C   0  0  0  0  0  0  0  0  0  0  0  0
   24.0881   24.1697   34.9135 N   0  0  0  0  0  0  0  0  0  0  0  0
   23.0480   23.4459   35.3897 C   0  0  0  0  0  0  0  0  0  0  0  0
   22.7406   22.0118   35.1414 C   0  0  0  0  0  0  0  0  0  0  0  0
   21.4358   21.7917   35.9595 C   0  0  0  0  0  0  0  0  0  0  0  0
   21.1240   23.0839   36.5756 N   0  0  0  0  0  0  0  0  0  0  0  0
   22.1199   24.0079   36.1976 C   0  0  0  0  0  0  0  0  0  0  0  0
   22.1892   25.3106   36.5589 N   0  0  0  0  0  0  0  0  0  0  0  0
   23.2233   26.0808   36.1022 C   0  0  0  0  0  0  0  0  0  0  0  0
   23.2806   27.5291   36.5022 C   0  0  0  0  0  0  0  0  0  0  0  0
   22.2238   27.8478   37.3378 F   0  0  0  0  0  0  0  0  0  0  0  0
   23.2143   28.3293   35.3759 F   0  0  0  0  0  0  0  0  0  0  0  0
   19.9807   23.3665   37.4321 C   0  0  0  0  0  0  0  0  0  0  0  0
  1  2  1  0
  2  3  2  0
  2  4  1  0
  4  5  2  0
  5  6  1  0
  6  7  2  0
  7  8  1  0
  8  9  2  0
  9 10  1  0
 10 11  2  0
 11 12  1  0
 12 13  2  0
 13 14  1  0
  1 15  1  0
 15 16  2  0
 16 17  1  0
 17 18  1  0
 18 19  1  0
 19 20  1  0
 20 21  1  0
 21 22  1  0
 22 23  2  0
 23 24  1  0
 24 25  1  0
 24 26  1  0
 20 27  1  0
 13  4  1  0
 23 15  1  0
 12  7  1  0
 21 17  2  0
M  END
>  <AAScore>  (1) 
2883.7727661366343

>  <RootName>  (1) 
./4ZLY/04_DeltaGEst/trajectory_03/rank_00/lead_0130

$$$$
