confid_12
     RDKit          3D

 31 35  0  0  0  0  0  0  0  0999 V2000
   25.3300   26.2600   34.7600 N   0  0  0  0  0  0  0  0  0  0  0  0
   26.1200   25.9200   33.6900 C   0  0  0  0  0  0  0  0  0  0  0  0
   25.6300   25.1100   32.9400 O   0  0  0  0  0  0  0  0  0  0  0  0
   27.5200   26.3800   33.4600 C   0  0  0  0  0  0  0  0  0  0  0  0
   28.1600   26.6300   34.6100 N   0  0  0  0  0  0  0  0  0  0  0  0
   29.4800   26.8500   34.5700 N   0  0  0  0  0  0  0  0  0  0  0  0
   30.1900   26.7800   33.4400 C   0  0  0  0  0  0  0  0  0  0  0  0
   31.5600   27.0500   33.5000 C   0  0  0  0  0  0  0  0  0  0  0  0
   32.2700   27.2400   32.3100 C   0  0  0  0  0  0  0  0  0  0  0  0
   31.6100   27.2500   31.0800 C   0  0  0  0  0  0  0  0  0  0  0  0
   30.2700   26.8700   31.0600 C   0  0  0  0  0  0  0  0  0  0  0  0
   29.5100   26.6900   32.2300 C   0  0  0  0  0  0  0  0  0  0  0  0
   28.1400   26.4100   32.2000 C   0  0  0  0  0  0  0  0  0  0  0  0
   27.4300   26.1300   31.0500 N   0  0  0  0  0  0  0  0  0  0  0  0
   27.5234   24.8173   30.4036 C   0  0  0  0  0  0  0  0  0  0  0  0
   27.5926   24.9882   28.8817 C   0  0  0  0  0  0  0  0  0  0  0  0
   26.4940   25.8587   28.4064 N   0  0  0  0  0  0  0  0  0  0  0  0
   26.5136   25.9655   26.9336 C   0  0  0  0  0  0  0  0  0  0  0  0
   25.8964   24.7505   26.3182 C   0  0  0  0  0  0  0  0  0  0  0  0
   24.5768   24.3629   26.4492 C   0  0  0  0  0  0  0  0  0  0  0  0
   24.4828   23.2067   25.7068 C   0  0  0  0  0  0  0  0  0  0  0  0
   25.6923   22.9479   25.1703 N   0  0  0  0  0  0  0  0  0  0  0  0
   26.5584   23.8807   25.5332 N   0  0  0  0  0  0  0  0  0  0  0  0
   26.0187   21.8645   24.3264 N   0  0  0  0  0  0  0  0  0  0  0  0
   24.9591   21.1059   23.6445 C   0  0  0  0  0  0  0  0  0  0  0  0
   25.4245   20.6422   22.2636 C   0  0  0  0  0  0  0  0  0  0  0  0
   26.7696   19.9223   22.3550 C   0  0  0  0  0  0  0  0  0  0  0  0
   27.8207   20.8271   23.0022 C   0  0  0  0  0  0  0  0  0  0  0  0
   27.3659   21.2848   24.3893 C   0  0  0  0  0  0  0  0  0  0  0  0
   26.6075   27.2007   29.0135 C   0  0  0  0  0  0  0  0  0  0  0  0
   26.4649   27.1020   30.5314 C   0  0  0  0  0  0  0  0  0  0  0  0
  1  2  1  0
  2  3  2  0
  2  4  1  0
  4  5  2  0
  5  6  1  0
  6  7  2  0
  7  8  1  0
  8  9  2  0
  9 10  1  0
 10 11  2  0
 11 12  1  0
 12 13  2  0
 13 14  1  0
 14 15  1  0
 15 16  1  0
 16 17  1  0
 17 18  1  0
 18 19  1  0
 19 20  1  0
 20 21  2  0
 21 22  1  0
 22 23  1  0
 22 24  1  0
 24 25  1  0
 25 26  1  0
 26 27  1  0
 27 28  1  0
 28 29  1  0
 17 30  1  0
 30 31  1  0
 13  4  1  0
 31 14  1  0
 12  7  1  0
 23 19  2  0
 29 24  1  0
M  END
>  <AAScore>  (1) 
4.831067001778486

>  <RootName>  (1) 
./4ZLY/04_DeltaGEst/trajectory_03/rank_01/lead_0191

$$$$
