confid_1
     RDKit          3D

 28 31  0  0  0  0  0  0  0  0999 V2000
   24.2000   26.2400   35.6900 N   0  0  0  0  0  0  0  0  0  0  0  0
   24.8500   26.2800   34.4800 C   0  0  0  0  0  0  0  0  0  0  0  0
   24.3100   25.7400   33.5400 O   0  0  0  0  0  0  0  0  0  0  0  0
   26.1800   26.9700   34.4700 C   0  0  0  0  0  0  0  0  0  0  0  0
   26.6500   27.6000   35.5500 N   0  0  0  0  0  0  0  0  0  0  0  0
   27.7900   28.2700   35.6200 N   0  0  0  0  0  0  0  0  0  0  0  0
   28.5400   28.3000   34.5100 C   0  0  0  0  0  0  0  0  0  0  0  0
   29.7700   28.9400   34.5600 C   0  0  0  0  0  0  0  0  0  0  0  0
   30.7000   28.8900   33.5000 C   0  0  0  0  0  0  0  0  0  0  0  0
   30.3700   28.1400   32.3700 C   0  0  0  0  0  0  0  0  0  0  0  0
   29.1200   27.5200   32.2800 C   0  0  0  0  0  0  0  0  0  0  0  0
   28.2100   27.6100   33.3300 C   0  0  0  0  0  0  0  0  0  0  0  0
   26.9700   26.9700   33.3100 C   0  0  0  0  0  0  0  0  0  0  0  0
   26.5300   26.2400   32.2200 N   0  0  0  0  0  0  0  0  0  0  0  0
   30.1402   29.6584   35.7476 N   0  0  0  0  0  0  0  0  0  0  0  0
   30.3209   31.1056   35.6875 C   0  0  0  0  0  0  0  0  0  0  0  0
   29.7454   31.7363   36.9508 C   0  0  0  0  0  0  0  0  0  0  0  0
   30.2425   31.0544   38.2122 C   0  0  0  0  0  0  0  0  0  0  0  0
   30.1980   31.7149   39.4715 C   0  0  0  0  0  0  0  0  0  0  0  0
   30.6626   31.0249   40.6063 C   0  0  0  0  0  0  0  0  0  0  0  0
   31.0969   29.7445   40.5093 N   0  0  0  0  0  0  0  0  0  0  0  0
   31.1078   29.0787   39.3301 C   0  0  0  0  0  0  0  0  0  0  0  0
   30.6738   29.7054   38.1575 C   0  0  0  0  0  0  0  0  0  0  0  0
   30.7339   28.9233   36.8656 C   0  0  0  0  0  0  0  0  0  0  0  0
   29.7099   33.1454   39.6156 C   0  0  0  0  0  0  0  0  0  0  0  0
   28.4817   33.2973   38.9976 F   0  0  0  0  0  0  0  0  0  0  0  0
   30.6247   34.0062   39.0375 F   0  0  0  0  0  0  0  0  0  0  0  0
   29.5580   33.5028   40.9447 F   0  0  0  0  0  0  0  0  0  0  0  0
  1  2  1  0
  2  3  2  0
  2  4  1  0
  4  5  2  0
  5  6  1  0
  6  7  2  0
  7  8  1  0
  8  9  2  0
  9 10  1  0
 10 11  2  0
 11 12  1  0
 12 13  2  0
 13 14  1  0
  8 15  1  0
 15 16  1  0
 16 17  1  0
 17 18  1  0
 18 19  2  0
 19 20  1  0
 20 21  2  0
 21 22  1  0
 22 23  2  0
 23 24  1  0
 19 25  1  0
 25 26  1  0
 25 27  1  0
 25 28  1  0
 13  4  1  0
 24 15  1  0
 12  7  1  0
 23 18  1  0
M  END
>  <AAScore>  (1) 
-8.269538533229117

>  <RootName>  (1) 
./4ZLY/04_DeltaGEst/trajectory_04/rank_01/lead_0329

$$$$
