confid_3
     RDKit          3D

 28 31  0  0  0  0  0  0  0  0999 V2000
   24.2000   26.2400   35.6900 N   0  0  0  0  0  0  0  0  0  0  0  0
   24.8500   26.2800   34.4800 C   0  0  0  0  0  0  0  0  0  0  0  0
   24.3100   25.7400   33.5400 O   0  0  0  0  0  0  0  0  0  0  0  0
   26.1800   26.9700   34.4700 C   0  0  0  0  0  0  0  0  0  0  0  0
   26.6500   27.6000   35.5500 N   0  0  0  0  0  0  0  0  0  0  0  0
   27.7900   28.2700   35.6200 N   0  0  0  0  0  0  0  0  0  0  0  0
   28.5400   28.3000   34.5100 C   0  0  0  0  0  0  0  0  0  0  0  0
   29.7700   28.9400   34.5600 C   0  0  0  0  0  0  0  0  0  0  0  0
   30.7000   28.8900   33.5000 C   0  0  0  0  0  0  0  0  0  0  0  0
   30.3700   28.1400   32.3700 C   0  0  0  0  0  0  0  0  0  0  0  0
   29.1200   27.5200   32.2800 C   0  0  0  0  0  0  0  0  0  0  0  0
   28.2100   27.6100   33.3300 C   0  0  0  0  0  0  0  0  0  0  0  0
   26.9700   26.9700   33.3100 C   0  0  0  0  0  0  0  0  0  0  0  0
   26.5300   26.2400   32.2200 N   0  0  0  0  0  0  0  0  0  0  0  0
   30.1359   29.6666   35.7447 N   0  0  0  0  0  0  0  0  0  0  0  0
   31.2291   29.1741   36.5897 C   0  0  0  0  0  0  0  0  0  0  0  0
   30.9640   29.5118   38.0612 C   0  0  0  0  0  0  0  0  0  0  0  0
   30.6605   30.9847   38.2429 C   0  0  0  0  0  0  0  0  0  0  0  0
   30.9873   31.6416   39.4470 C   0  0  0  0  0  0  0  0  0  0  0  0
   31.6386   30.9498   40.4724 O   0  0  0  0  0  0  0  0  0  0  0  0
   30.9031   30.3235   41.5181 C   0  0  0  0  0  0  0  0  0  0  0  0
   30.6525   32.9952   39.6197 C   0  0  0  0  0  0  0  0  0  0  0  0
   29.9422   33.6738   38.6272 C   0  0  0  0  0  0  0  0  0  0  0  0
   29.5839   33.0213   37.4470 C   0  0  0  0  0  0  0  0  0  0  0  0
   29.9422   31.6787   37.2446 C   0  0  0  0  0  0  0  0  0  0  0  0
   29.5909   30.9760   35.9924 C   0  0  0  0  0  0  0  0  0  0  0  0
   28.8241   31.5182   35.1472 O   0  0  0  0  0  0  0  0  0  0  0  0
   31.0974   33.8483   41.0895 Cl  0  0  0  0  0  0  0  0  0  0  0  0
  1  2  1  0
  2  3  2  0
  2  4  1  0
  4  5  2  0
  5  6  1  0
  6  7  2  0
  7  8  1  0
  8  9  2  0
  9 10  1  0
 10 11  2  0
 11 12  1  0
 12 13  2  0
 13 14  1  0
  8 15  1  0
 15 16  1  0
 16 17  1  0
 17 18  1  0
 18 19  2  0
 19 20  1  0
 20 21  1  0
 19 22  1  0
 22 23  2  0
 23 24  1  0
 24 25  2  0
 25 26  1  0
 26 27  2  0
 22 28  1  0
 13  4  1  0
 26 15  1  0
 12  7  1  0
 25 18  1  0
M  END
>  <AAScore>  (1) 
-8.422049200314063

>  <RootName>  (1) 
./4ZLY/04_DeltaGEst/trajectory_04/rank_01/lead_0372

$$$$
