confid_9
     RDKit          3D

 28 31  0  0  0  0  0  0  0  0999 V2000
   25.3300   26.2600   34.7600 N   0  0  0  0  0  0  0  0  0  0  0  0
   26.1200   25.9200   33.6900 C   0  0  0  0  0  0  0  0  0  0  0  0
   25.6300   25.1100   32.9400 O   0  0  0  0  0  0  0  0  0  0  0  0
   27.5200   26.3800   33.4600 C   0  0  0  0  0  0  0  0  0  0  0  0
   28.1600   26.6300   34.6100 N   0  0  0  0  0  0  0  0  0  0  0  0
   29.4800   26.8500   34.5700 N   0  0  0  0  0  0  0  0  0  0  0  0
   30.1900   26.7800   33.4400 C   0  0  0  0  0  0  0  0  0  0  0  0
   31.5600   27.0500   33.5000 C   0  0  0  0  0  0  0  0  0  0  0  0
   32.2700   27.2400   32.3100 C   0  0  0  0  0  0  0  0  0  0  0  0
   31.6100   27.2500   31.0800 C   0  0  0  0  0  0  0  0  0  0  0  0
   30.2700   26.8700   31.0600 C   0  0  0  0  0  0  0  0  0  0  0  0
   29.5100   26.6900   32.2300 C   0  0  0  0  0  0  0  0  0  0  0  0
   28.1400   26.4100   32.2000 C   0  0  0  0  0  0  0  0  0  0  0  0
   27.4300   26.1300   31.0500 N   0  0  0  0  0  0  0  0  0  0  0  0
   24.1912   25.5125   35.2404 C   0  0  0  0  0  0  0  0  0  0  0  0
   23.9835   24.2342   34.8274 N   0  0  0  0  0  0  0  0  0  0  0  0
   22.9553   23.4527   35.2580 C   0  0  0  0  0  0  0  0  0  0  0  0
   22.8559   22.1029   34.5919 C   0  0  0  0  0  0  0  0  0  0  0  0
   22.2714   21.0322   35.4071 N   0  0  0  0  0  0  0  0  0  0  0  0
   23.0021   20.7488   36.6541 C   0  0  0  0  0  0  0  0  0  0  0  0
   20.8174   21.1662   35.5514 C   0  0  0  0  0  0  0  0  0  0  0  0
   20.4074   22.1286   36.6164 C   0  0  0  0  0  0  0  0  0  0  0  0
   20.9265   23.3035   36.8007 N   0  0  0  0  0  0  0  0  0  0  0  0
   22.0234   24.0014   36.1807 C   0  0  0  0  0  0  0  0  0  0  0  0
   22.2267   25.3158   36.6204 C   0  0  0  0  0  0  0  0  0  0  0  0
   23.3058   26.0853   36.1611 C   0  0  0  0  0  0  0  0  0  0  0  0
   23.5202   27.4047   36.5929 O   0  0  0  0  0  0  0  0  0  0  0  0
   22.6930   28.0959   37.5232 C   0  0  0  0  0  0  0  0  0  0  0  0
  1  2  1  0
  2  3  2  0
  2  4  1  0
  4  5  2  0
  5  6  1  0
  6  7  2  0
  7  8  1  0
  8  9  2  0
  9 10  1  0
 10 11  2  0
 11 12  1  0
 12 13  2  0
 13 14  1  0
  1 15  1  0
 15 16  2  0
 16 17  1  0
 17 18  1  0
 18 19  1  0
 19 20  1  0
 19 21  1  0
 21 22  1  0
 22 23  2  0
 23 24  1  0
 24 25  1  0
 25 26  2  0
 26 27  1  0
 27 28  1  0
 13  4  1  0
 26 15  1  0
 12  7  1  0
 24 17  2  0
M  END
>  <AAScore>  (1) 
4287.487461511743

>  <RootName>  (1) 
./4ZLY/04_DeltaGEst/trajectory_03/rank_00/lead_0180

$$$$
