confid_16
     RDKit          3D

 29 32  0  0  0  0  0  0  0  0999 V2000
   25.3300   26.2600   34.7600 N   0  0  0  0  0  0  0  0  0  0  0  0
   26.1200   25.9200   33.6900 C   0  0  0  0  0  0  0  0  0  0  0  0
   25.6300   25.1100   32.9400 O   0  0  0  0  0  0  0  0  0  0  0  0
   27.5200   26.3800   33.4600 C   0  0  0  0  0  0  0  0  0  0  0  0
   28.1600   26.6300   34.6100 N   0  0  0  0  0  0  0  0  0  0  0  0
   29.4800   26.8500   34.5700 N   0  0  0  0  0  0  0  0  0  0  0  0
   30.1900   26.7800   33.4400 C   0  0  0  0  0  0  0  0  0  0  0  0
   31.5600   27.0500   33.5000 C   0  0  0  0  0  0  0  0  0  0  0  0
   32.2700   27.2400   32.3100 C   0  0  0  0  0  0  0  0  0  0  0  0
   31.6100   27.2500   31.0800 C   0  0  0  0  0  0  0  0  0  0  0  0
   30.2700   26.8700   31.0600 C   0  0  0  0  0  0  0  0  0  0  0  0
   29.5100   26.6900   32.2300 C   0  0  0  0  0  0  0  0  0  0  0  0
   28.1400   26.4100   32.2000 C   0  0  0  0  0  0  0  0  0  0  0  0
   27.4300   26.1300   31.0500 N   0  0  0  0  0  0  0  0  0  0  0  0
   26.5365   27.1597   30.5006 C   0  0  0  0  0  0  0  0  0  0  0  0
   26.4776   27.0549   28.9807 C   0  0  0  0  0  0  0  0  0  0  0  0
   26.0535   25.7076   28.5964 N   0  0  0  0  0  0  0  0  0  0  0  0
   26.6174   24.5839   29.2964 C   0  0  0  0  0  0  0  0  0  0  0  0
   26.3379   23.4063   28.9438 O   0  0  0  0  0  0  0  0  0  0  0  0
   27.5746   24.7977   30.4359 C   0  0  0  0  0  0  0  0  0  0  0  0
   25.1162   25.5106   27.4837 C   0  0  0  0  0  0  0  0  0  0  0  0
   25.8696   25.1746   26.2253 C   0  0  0  0  0  0  0  0  0  0  0  0
   26.5727   26.1762   25.5393 C   0  0  0  0  0  0  0  0  0  0  0  0
   27.2969   25.8655   24.3851 C   0  0  0  0  0  0  0  0  0  0  0  0
   27.3347   24.5530   23.9005 C   0  0  0  0  0  0  0  0  0  0  0  0
   28.0746   24.2928   22.7376 O   0  0  0  0  0  0  0  0  0  0  0  0
   28.2073   23.0073   22.1400 C   0  0  0  0  0  0  0  0  0  0  0  0
   26.6341   23.5457   24.5914 C   0  0  0  0  0  0  0  0  0  0  0  0
   25.9099   23.8561   25.7464 C   0  0  0  0  0  0  0  0  0  0  0  0
  1  2  1  0
  2  3  2  0
  2  4  1  0
  4  5  2  0
  5  6  1  0
  6  7  2  0
  7  8  1  0
  8  9  2  0
  9 10  1  0
 10 11  2  0
 11 12  1  0
 12 13  2  0
 13 14  1  0
 14 15  1  0
 15 16  1  0
 16 17  1  0
 17 18  1  0
 18 19  2  0
 18 20  1  0
 17 21  1  0
 21 22  1  0
 22 23  2  0
 23 24  1  0
 24 25  2  0
 25 26  1  0
 26 27  1  0
 25 28  1  0
 28 29  2  0
 13  4  1  0
 20 14  1  0
 29 22  1  0
 12  7  1  0
M  END
>  <AAScore>  (1) 
48.7842369752043

>  <RootName>  (1) 
./4ZLY/04_DeltaGEst/trajectory_03/rank_01/lead_0315

$$$$
