confid_10
     RDKit          3D

 27 30  0  0  0  0  0  0  0  0999 V2000
   25.3300   26.2600   34.7600 N   0  0  0  0  0  0  0  0  0  0  0  0
   26.1200   25.9200   33.6900 C   0  0  0  0  0  0  0  0  0  0  0  0
   25.6300   25.1100   32.9400 O   0  0  0  0  0  0  0  0  0  0  0  0
   27.5200   26.3800   33.4600 C   0  0  0  0  0  0  0  0  0  0  0  0
   28.1600   26.6300   34.6100 N   0  0  0  0  0  0  0  0  0  0  0  0
   29.4800   26.8500   34.5700 N   0  0  0  0  0  0  0  0  0  0  0  0
   30.1900   26.7800   33.4400 C   0  0  0  0  0  0  0  0  0  0  0  0
   31.5600   27.0500   33.5000 C   0  0  0  0  0  0  0  0  0  0  0  0
   32.2700   27.2400   32.3100 C   0  0  0  0  0  0  0  0  0  0  0  0
   31.6100   27.2500   31.0800 C   0  0  0  0  0  0  0  0  0  0  0  0
   30.2700   26.8700   31.0600 C   0  0  0  0  0  0  0  0  0  0  0  0
   29.5100   26.6900   32.2300 C   0  0  0  0  0  0  0  0  0  0  0  0
   28.1400   26.4100   32.2000 C   0  0  0  0  0  0  0  0  0  0  0  0
   27.4300   26.1300   31.0500 N   0  0  0  0  0  0  0  0  0  0  0  0
   24.1934   25.5265   35.2514 C   0  0  0  0  0  0  0  0  0  0  0  0
   23.3568   26.0332   36.1826 N   0  0  0  0  0  0  0  0  0  0  0  0
   22.3792   25.1532   36.5347 C   0  0  0  0  0  0  0  0  0  0  0  0
   21.3451   25.5243   37.5637 C   0  0  0  0  0  0  0  0  0  0  0  0
   19.9192   25.5346   36.9638 C   0  0  0  0  0  0  0  0  0  0  0  0
   18.8695   25.0128   37.8720 N   0  0  0  0  0  0  0  0  0  0  0  0
   18.6107   25.9435   38.9823 C   0  0  0  0  0  0  0  0  0  0  0  0
   19.0655   23.6320   38.3833 C   0  0  0  0  0  0  0  0  0  0  0  0
   19.5485   22.6308   37.3200 C   0  0  0  0  0  0  0  0  0  0  0  0
   20.9665   22.6421   37.2744 O   0  0  0  0  0  0  0  0  0  0  0  0
   21.4851   22.7609   35.9629 C   0  0  0  0  0  0  0  0  0  0  0  0
   22.4592   23.9037   35.8946 C   0  0  0  0  0  0  0  0  0  0  0  0
   23.7692   23.9474   34.8399 S   0  0  0  0  0  0  0  0  0  0  0  0
  1  2  1  0
  2  3  2  0
  2  4  1  0
  4  5  2  0
  5  6  1  0
  6  7  2  0
  7  8  1  0
  8  9  2  0
  9 10  1  0
 10 11  2  0
 11 12  1  0
 12 13  2  0
 13 14  1  0
  1 15  1  0
 15 16  2  0
 16 17  1  0
 17 18  1  0
 18 19  1  0
 19 20  1  0
 20 21  1  0
 20 22  1  0
 22 23  1  0
 23 24  1  0
 24 25  1  0
 25 26  1  0
 26 27  1  0
 13  4  1  0
 27 15  1  0
 12  7  1  0
 26 17  2  0
M  END
>  <AAScore>  (1) 
3897.2573502803502

>  <RootName>  (1) 
./4ZLY/04_DeltaGEst/trajectory_03/rank_00/lead_0417

$$$$
