confid_8
     RDKit          3D

 30 34  0  0  0  0  0  0  0  0999 V2000
   24.5700   26.8800   35.5900 N   0  0  0  0  0  0  0  0  0  0  0  0
   25.5000   26.4000   34.6900 C   0  0  0  0  0  0  0  0  0  0  0  0
   25.1700   25.5200   33.9100 O   0  0  0  0  0  0  0  0  0  0  0  0
   26.8400   27.0200   34.7400 C   0  0  0  0  0  0  0  0  0  0  0  0
   27.3800   27.2800   35.9400 N   0  0  0  0  0  0  0  0  0  0  0  0
   28.6200   27.7400   36.0300 N   0  0  0  0  0  0  0  0  0  0  0  0
   29.3800   28.0000   34.9600 C   0  0  0  0  0  0  0  0  0  0  0  0
   30.6700   28.5000   35.1300 C   0  0  0  0  0  0  0  0  0  0  0  0
   31.5400   28.6100   34.0300 C   0  0  0  0  0  0  0  0  0  0  0  0
   31.0900   28.2200   32.7700 C   0  0  0  0  0  0  0  0  0  0  0  0
   29.8000   27.7000   32.6000 C   0  0  0  0  0  0  0  0  0  0  0  0
   28.9600   27.5500   33.7100 C   0  0  0  0  0  0  0  0  0  0  0  0
   27.6600   27.0300   33.5900 C   0  0  0  0  0  0  0  0  0  0  0  0
   27.1600   26.7400   32.3400 N   0  0  0  0  0  0  0  0  0  0  0  0
   33.1744   29.2264   34.2642 S   0  0  0  0  0  6  0  0  0  0  0  0
   34.0509   28.8199   33.1140 O   0  0  0  0  0  0  0  0  0  0  0  0
   33.7446   28.6303   35.5181 O   0  0  0  0  0  0  0  0  0  0  0  0
   33.1563   31.0107   34.4180 C   0  0  0  0  0  0  0  0  0  0  0  0
   32.4428   31.7047   33.2326 C   0  0  2  0  0  0  0  0  0  0  0  0
   33.2203   31.5440   31.9048 C   0  0  0  0  0  0  0  0  0  0  0  0
   32.8070   32.5695   30.8335 C   0  0  0  0  0  0  0  0  0  0  0  0
   31.4260   33.2065   31.1069 C   0  0  2  0  0  0  0  0  0  0  0  0
   31.4063   33.8844   32.4322 N   0  0  0  0  0  0  0  0  0  0  0  0
   31.9077   35.2675   32.3993 C   0  0  0  0  0  0  0  0  0  0  0  0
   33.2832   35.2868   33.0388 C   0  0  0  0  0  0  0  0  0  0  0  0
   33.3578   34.0447   33.8962 C   0  0  0  0  0  0  0  0  0  0  0  0
   32.1229   33.1986   33.5335 C   0  0  2  0  0  0  0  0  0  0  0  0
   30.2116   32.2345   31.0388 C   0  0  0  0  0  0  0  0  0  0  0  0
   29.6525   32.0281   29.6364 C   0  0  0  0  0  0  0  0  0  0  0  0
   30.3042   30.8699   30.3567 C   0  0  0  0  0  0  0  0  0  0  0  0
  1  2  1  0
  2  3  2  0
  2  4  1  0
  4  5  2  0
  5  6  1  0
  6  7  2  0
  7  8  1  0
  8  9  2  0
  9 10  1  0
 10 11  2  0
 11 12  1  0
 12 13  2  0
 13 14  1  0
  9 15  1  0
 15 16  2  0
 15 17  2  0
 15 18  1  0
 19 18  1  1
 19 20  1  0
 20 21  1  0
 21 22  1  0
 22 23  1  0
 23 24  1  0
 24 25  1  0
 25 26  1  0
 27 26  1  6
 22 28  1  1
 28 29  1  0
 29 30  1  0
 13  4  1  0
 27 19  1  0
 30 28  1  0
 12  7  1  0
 27 23  1  0
M  END
>  <AAScore>  (1) 
27.171162172255823

>  <RootName>  (1) 
./4ZLY/04_DeltaGEst/trajectory_05/rank_01/lead_0189

$$$$
