confid_5
     RDKit          3D

 27 30  0  0  0  0  0  0  0  0999 V2000
   24.6900   26.1200   35.5300 N   0  0  0  0  0  0  0  0  0  0  0  0
   25.6600   25.6700   34.6600 C   0  0  0  0  0  0  0  0  0  0  0  0
   25.2400   25.0100   33.7200 O   0  0  0  0  0  0  0  0  0  0  0  0
   27.0300   26.2200   34.8800 C   0  0  0  0  0  0  0  0  0  0  0  0
   27.3500   26.7300   36.0700 N   0  0  0  0  0  0  0  0  0  0  0  0
   28.5700   27.1800   36.3300 N   0  0  0  0  0  0  0  0  0  0  0  0
   29.5300   27.1100   35.3900 C   0  0  0  0  0  0  0  0  0  0  0  0
   30.8300   27.5700   35.6500 C   0  0  0  0  0  0  0  0  0  0  0  0
   31.8500   27.5400   34.6900 C   0  0  0  0  0  0  0  0  0  0  0  0
   31.5100   27.1200   33.4000 C   0  0  0  0  0  0  0  0  0  0  0  0
   30.2200   26.6300   33.1100 C   0  0  0  0  0  0  0  0  0  0  0  0
   29.2400   26.6600   34.1000 C   0  0  0  0  0  0  0  0  0  0  0  0
   27.9300   26.2600   33.8100 C   0  0  0  0  0  0  0  0  0  0  0  0
   27.5200   25.7100   32.6100 N   0  0  0  0  0  0  0  0  0  0  0  0
   31.1533   28.0642   36.9583 N   0  0  0  0  0  0  0  0  0  0  0  0
   31.8501   27.1754   37.8994 C   0  0  0  0  0  0  0  0  0  0  0  0
   30.9088   26.6911   39.0160 C   0  0  0  0  0  0  0  0  0  0  0  0
   29.9987   27.7888   39.5934 C   0  0  0  0  0  0  0  0  0  0  0  0
   30.7420   29.0846   39.8060 C   0  0  0  0  0  0  0  0  0  0  0  0
   31.0793   29.4891   41.1078 C   0  0  0  0  0  0  0  0  0  0  0  0
   31.7970   30.6675   41.3193 C   0  0  0  0  0  0  0  0  0  0  0  0
   32.1927   31.4528   40.2327 C   0  0  0  0  0  0  0  0  0  0  0  0
   32.9298   32.6694   40.4546 C   0  0  0  0  0  0  0  0  0  0  0  0
   33.5223   33.6473   40.6328 N   0  0  0  0  0  0  0  0  0  0  0  0
   31.8737   31.0542   38.9296 C   0  0  0  0  0  0  0  0  0  0  0  0
   31.1596   29.8650   38.7003 C   0  0  0  0  0  0  0  0  0  0  0  0
   30.8160   29.4644   37.2764 C   0  0  0  0  0  0  0  0  0  0  0  0
  1  2  1  0
  2  3  2  0
  2  4  1  0
  4  5  2  0
  5  6  1  0
  6  7  2  0
  7  8  1  0
  8  9  2  0
  9 10  1  0
 10 11  2  0
 11 12  1  0
 12 13  2  0
 13 14  1  0
  8 15  1  0
 15 16  1  0
 16 17  1  0
 17 18  1  0
 18 19  1  0
 19 20  2  0
 20 21  1  0
 21 22  2  0
 22 23  1  0
 23 24  3  0
 22 25  1  0
 25 26  2  0
 26 27  1  0
 13  4  1  0
 27 15  1  0
 12  7  1  0
 26 19  1  0
M  END
>  <AAScore>  (1) 
-5.119493533471911

>  <RootName>  (1) 
./4ZLY/04_DeltaGEst/trajectory_02/rank_01/lead_0451

$$$$
