confid_18
     RDKit          3D

 28 31  0  0  0  0  0  0  0  0999 V2000
   24.6900   26.1200   35.5300 N   0  0  0  0  0  0  0  0  0  0  0  0
   25.6600   25.6700   34.6600 C   0  0  0  0  0  0  0  0  0  0  0  0
   25.2400   25.0100   33.7200 O   0  0  0  0  0  0  0  0  0  0  0  0
   27.0300   26.2200   34.8800 C   0  0  0  0  0  0  0  0  0  0  0  0
   27.3500   26.7300   36.0700 N   0  0  0  0  0  0  0  0  0  0  0  0
   28.5700   27.1800   36.3300 N   0  0  0  0  0  0  0  0  0  0  0  0
   29.5300   27.1100   35.3900 C   0  0  0  0  0  0  0  0  0  0  0  0
   30.8300   27.5700   35.6500 C   0  0  0  0  0  0  0  0  0  0  0  0
   31.8500   27.5400   34.6900 C   0  0  0  0  0  0  0  0  0  0  0  0
   31.5100   27.1200   33.4000 C   0  0  0  0  0  0  0  0  0  0  0  0
   30.2200   26.6300   33.1100 C   0  0  0  0  0  0  0  0  0  0  0  0
   29.2400   26.6600   34.1000 C   0  0  0  0  0  0  0  0  0  0  0  0
   27.9300   26.2600   33.8100 C   0  0  0  0  0  0  0  0  0  0  0  0
   27.5200   25.7100   32.6100 N   0  0  0  0  0  0  0  0  0  0  0  0
   23.3228   26.3067   35.1414 C   0  0  0  0  0  0  0  0  0  0  0  0
   22.9576   27.1325   34.1390 N   0  0  0  0  0  0  0  0  0  0  0  0
   21.6161   27.0215   34.0978 C   0  0  0  0  0  0  0  0  0  0  0  0
   21.1946   26.1234   35.0620 C   0  0  0  0  0  0  0  0  0  0  0  0
   19.7635   25.6843   35.2574 C   0  0  0  0  0  0  0  0  0  0  0  0
   19.1674   25.0266   33.9924 C   0  0  0  0  0  0  0  0  0  0  0  0
   19.1103   23.5486   34.1566 N   0  0  0  0  0  0  0  0  0  0  0  0
   17.7543   23.0382   33.8946 C   0  0  0  0  0  0  0  0  0  0  0  0
   20.0967   22.8351   33.3131 C   0  0  0  0  0  0  0  0  0  0  0  0
   21.5284   23.0072   33.8393 C   0  0  0  0  0  0  0  0  0  0  0  0
   21.6727   22.5372   35.3022 C   0  0  0  0  0  0  0  0  0  0  0  0
   22.8136   23.2428   36.0547 C   0  0  0  0  0  0  0  0  0  0  0  0
   22.3861   24.5788   36.7066 C   0  0  0  0  0  0  0  0  0  0  0  0
   22.2843   25.6654   35.7213 N   0  0  0  0  0  0  0  0  0  0  0  0
  1  2  1  0
  2  3  2  0
  2  4  1  0
  4  5  2  0
  5  6  1  0
  6  7  2  0
  7  8  1  0
  8  9  2  0
  9 10  1  0
 10 11  2  0
 11 12  1  0
 12 13  2  0
 13 14  1  0
  1 15  1  0
 15 16  2  0
 16 17  1  0
 17 18  2  0
 18 19  1  0
 19 20  1  0
 20 21  1  0
 21 22  1  0
 21 23  1  0
 23 24  1  0
 24 25  1  0
 25 26  1  0
 26 27  1  0
 27 28  1  0
 13  4  1  0
 28 15  1  0
 12  7  1  0
 28 18  1  0
M  END
>  <AAScore>  (1) 
4369.689607495081

>  <RootName>  (1) 
./4ZLY/04_DeltaGEst/trajectory_02/rank_00/lead_0354

$$$$
