confid_1
     RDKit          3D

 28 31  0  0  0  0  0  0  0  0999 V2000
   24.6900   26.1200   35.5300 N   0  0  0  0  0  0  0  0  0  0  0  0
   25.6600   25.6700   34.6600 C   0  0  0  0  0  0  0  0  0  0  0  0
   25.2400   25.0100   33.7200 O   0  0  0  0  0  0  0  0  0  0  0  0
   27.0300   26.2200   34.8800 C   0  0  0  0  0  0  0  0  0  0  0  0
   27.3500   26.7300   36.0700 N   0  0  0  0  0  0  0  0  0  0  0  0
   28.5700   27.1800   36.3300 N   0  0  0  0  0  0  0  0  0  0  0  0
   29.5300   27.1100   35.3900 C   0  0  0  0  0  0  0  0  0  0  0  0
   30.8300   27.5700   35.6500 C   0  0  0  0  0  0  0  0  0  0  0  0
   31.8500   27.5400   34.6900 C   0  0  0  0  0  0  0  0  0  0  0  0
   31.5100   27.1200   33.4000 C   0  0  0  0  0  0  0  0  0  0  0  0
   30.2200   26.6300   33.1100 C   0  0  0  0  0  0  0  0  0  0  0  0
   29.2400   26.6600   34.1000 C   0  0  0  0  0  0  0  0  0  0  0  0
   27.9300   26.2600   33.8100 C   0  0  0  0  0  0  0  0  0  0  0  0
   27.5200   25.7100   32.6100 N   0  0  0  0  0  0  0  0  0  0  0  0
   23.5031   25.3723   35.8571 C   0  0  0  0  0  0  0  0  0  0  0  0
   23.2777   24.1132   35.4185 N   0  0  0  0  0  0  0  0  0  0  0  0
   22.1269   23.7518   36.0175 C   0  0  0  0  0  0  0  0  0  0  0  0
   21.6833   24.7798   36.8210 C   0  0  0  0  0  0  0  0  0  0  0  0
   20.3986   24.7658   37.6094 C   0  0  0  0  0  0  0  0  0  0  0  0
   20.5878   25.3128   38.9696 N   0  0  0  0  0  0  0  0  0  0  0  0
   21.2415   24.3451   39.8822 C   0  0  0  0  0  0  0  0  0  0  0  0
   22.1158   25.0944   40.9088 C   0  0  0  0  0  0  0  0  0  0  0  0
   23.5617   25.3256   40.4314 C   0  0  0  0  0  0  0  0  0  0  0  0
   23.6273   25.5863   39.0453 O   0  0  0  0  0  0  0  0  0  0  0  0
   23.3906   26.9508   38.7438 C   0  0  0  0  0  0  0  0  0  0  0  0
   22.5378   27.0725   37.4654 C   0  0  0  0  0  0  0  0  0  0  0  0
   22.5399   25.8190   36.6983 N   0  0  0  0  0  0  0  0  0  0  0  0
   19.2897   25.7490   39.5161 C   0  0  0  0  0  0  0  0  0  0  0  0
  1  2  1  0
  2  3  2  0
  2  4  1  0
  4  5  2  0
  5  6  1  0
  6  7  2  0
  7  8  1  0
  8  9  2  0
  9 10  1  0
 10 11  2  0
 11 12  1  0
 12 13  2  0
 13 14  1  0
  1 15  1  0
 15 16  2  0
 16 17  1  0
 17 18  2  0
 18 19  1  0
 19 20  1  0
 20 21  1  0
 21 22  1  0
 22 23  1  0
 23 24  1  0
 24 25  1  0
 25 26  1  0
 26 27  1  0
 20 28  1  0
 13  4  1  0
 27 15  1  0
 12  7  1  0
 27 18  1  0
M  END
>  <AAScore>  (1) 
3502.3507282125397

>  <RootName>  (1) 
./4ZLY/04_DeltaGEst/trajectory_02/rank_00/lead_0286

$$$$
