confid_7
     RDKit          3D

 27 30  0  0  0  0  0  0  0  0999 V2000
   24.6900   26.1200   35.5300 N   0  0  0  0  0  0  0  0  0  0  0  0
   25.6600   25.6700   34.6600 C   0  0  0  0  0  0  0  0  0  0  0  0
   25.2400   25.0100   33.7200 O   0  0  0  0  0  0  0  0  0  0  0  0
   27.0300   26.2200   34.8800 C   0  0  0  0  0  0  0  0  0  0  0  0
   27.3500   26.7300   36.0700 N   0  0  0  0  0  0  0  0  0  0  0  0
   28.5700   27.1800   36.3300 N   0  0  0  0  0  0  0  0  0  0  0  0
   29.5300   27.1100   35.3900 C   0  0  0  0  0  0  0  0  0  0  0  0
   30.8300   27.5700   35.6500 C   0  0  0  0  0  0  0  0  0  0  0  0
   31.8500   27.5400   34.6900 C   0  0  0  0  0  0  0  0  0  0  0  0
   31.5100   27.1200   33.4000 C   0  0  0  0  0  0  0  0  0  0  0  0
   30.2200   26.6300   33.1100 C   0  0  0  0  0  0  0  0  0  0  0  0
   29.2400   26.6600   34.1000 C   0  0  0  0  0  0  0  0  0  0  0  0
   27.9300   26.2600   33.8100 C   0  0  0  0  0  0  0  0  0  0  0  0
   27.5200   25.7100   32.6100 N   0  0  0  0  0  0  0  0  0  0  0  0
   23.3148   26.3437   35.1529 C   0  0  0  0  0  0  0  0  0  0  0  0
   23.0069   26.5887   33.8404 N   0  0  0  0  0  0  0  0  0  0  0  0
   21.7383   26.8431   33.4188 C   0  0  0  0  0  0  0  0  0  0  0  0
   20.7140   26.8638   34.3561 C   0  0  0  0  0  0  0  0  0  0  0  0
   19.2748   27.1302   34.1249 C   0  0  0  0  0  0  0  0  0  0  0  0
   18.7044   27.0232   35.4678 N   0  0  0  0  0  0  0  0  0  0  0  0
   17.3120   27.1962   35.7740 C   0  0  0  0  0  0  0  0  0  0  0  0
   16.9102   27.0647   36.9614 O   0  0  0  0  0  0  0  0  0  0  0  0
   16.3245   27.5328   34.7007 C   0  0  0  0  0  0  0  0  0  0  0  0
   19.7177   26.7072   36.4751 C   0  0  0  0  0  0  0  0  0  0  0  0
   20.9761   26.6251   35.6829 C   0  0  0  0  0  0  0  0  0  0  0  0
   22.2806   26.3521   36.1279 C   0  0  0  0  0  0  0  0  0  0  0  0
   22.5671   26.0963   37.5843 C   0  0  0  0  0  0  0  0  0  0  0  0
  1  2  1  0
  2  3  2  0
  2  4  1  0
  4  5  2  0
  5  6  1  0
  6  7  2  0
  7  8  1  0
  8  9  2  0
  9 10  1  0
 10 11  2  0
 11 12  1  0
 12 13  2  0
 13 14  1  0
  1 15  1  0
 15 16  2  0
 16 17  1  0
 17 18  2  0
 18 19  1  0
 19 20  1  0
 20 21  1  0
 21 22  2  0
 21 23  1  0
 20 24  1  0
 24 25  1  0
 25 26  2  0
 26 27  1  0
 13  4  1  0
 26 15  1  0
 12  7  1  0
 25 18  1  0
M  END
>  <AAScore>  (1) 
880.1637666819846

>  <RootName>  (1) 
./4ZLY/04_DeltaGEst/trajectory_02/rank_00/lead_0335

$$$$
