confid_2
     RDKit          3D

 27 30  0  0  0  0  0  0  0  0999 V2000
   24.6900   26.1200   35.5300 N   0  0  0  0  0  0  0  0  0  0  0  0
   25.6600   25.6700   34.6600 C   0  0  0  0  0  0  0  0  0  0  0  0
   25.2400   25.0100   33.7200 O   0  0  0  0  0  0  0  0  0  0  0  0
   27.0300   26.2200   34.8800 C   0  0  0  0  0  0  0  0  0  0  0  0
   27.3500   26.7300   36.0700 N   0  0  0  0  0  0  0  0  0  0  0  0
   28.5700   27.1800   36.3300 N   0  0  0  0  0  0  0  0  0  0  0  0
   29.5300   27.1100   35.3900 C   0  0  0  0  0  0  0  0  0  0  0  0
   30.8300   27.5700   35.6500 C   0  0  0  0  0  0  0  0  0  0  0  0
   31.8500   27.5400   34.6900 C   0  0  0  0  0  0  0  0  0  0  0  0
   31.5100   27.1200   33.4000 C   0  0  0  0  0  0  0  0  0  0  0  0
   30.2200   26.6300   33.1100 C   0  0  0  0  0  0  0  0  0  0  0  0
   29.2400   26.6600   34.1000 C   0  0  0  0  0  0  0  0  0  0  0  0
   27.9300   26.2600   33.8100 C   0  0  0  0  0  0  0  0  0  0  0  0
   27.5200   25.7100   32.6100 N   0  0  0  0  0  0  0  0  0  0  0  0
   23.2911   26.2222   35.1900 C   0  0  0  0  0  0  0  0  0  0  0  0
   22.9385   26.4913   33.9034 N   0  0  0  0  0  0  0  0  0  0  0  0
   21.6506   26.6628   33.5197 C   0  0  0  0  0  0  0  0  0  0  0  0
   20.6221   26.6213   34.4641 C   0  0  0  0  0  0  0  0  0  0  0  0
   19.1948   26.7782   34.0118 C   0  0  0  0  0  0  0  0  0  0  0  0
   18.3631   27.4040   35.0855 C   0  0  0  0  0  0  0  0  0  0  0  0
   17.3534   28.0876   34.7669 O   0  0  0  0  0  0  0  0  0  0  0  0
   18.6944   27.1943   36.4682 N   0  0  0  0  0  0  0  0  0  0  0  0
   19.8102   26.3099   36.8344 C   0  0  0  0  0  0  0  0  0  0  0  0
   20.9357   26.3629   35.8155 C   0  0  0  0  0  0  0  0  0  0  0  0
   22.2836   26.0937   36.1777 C   0  0  0  0  0  0  0  0  0  0  0  0
   22.6454   25.6808   37.5872 C   0  0  0  0  0  0  0  0  0  0  0  0
   17.8273   27.7457   37.5124 C   0  0  0  0  0  0  0  0  0  0  0  0
  1  2  1  0
  2  3  2  0
  2  4  1  0
  4  5  2  0
  5  6  1  0
  6  7  2  0
  7  8  1  0
  8  9  2  0
  9 10  1  0
 10 11  2  0
 11 12  1  0
 12 13  2  0
 13 14  1  0
  1 15  1  0
 15 16  2  0
 16 17  1  0
 17 18  2  0
 18 19  1  0
 19 20  1  0
 20 21  2  0
 20 22  1  0
 22 23  1  0
 23 24  1  0
 24 25  2  0
 25 26  1  0
 22 27  1  0
 13  4  1  0
 25 15  1  0
 12  7  1  0
 24 18  1  0
M  END
>  <AAScore>  (1) 
164.63451726093714

>  <RootName>  (1) 
./4ZLY/04_DeltaGEst/trajectory_02/rank_00/lead_0070

$$$$
