confid_13
     RDKit          3D

 30 33  0  0  0  0  0  0  0  0999 V2000
   24.6900   26.1200   35.5300 N   0  0  0  0  0  0  0  0  0  0  0  0
   25.6600   25.6700   34.6600 C   0  0  0  0  0  0  0  0  0  0  0  0
   25.2400   25.0100   33.7200 O   0  0  0  0  0  0  0  0  0  0  0  0
   27.0300   26.2200   34.8800 C   0  0  0  0  0  0  0  0  0  0  0  0
   27.3500   26.7300   36.0700 N   0  0  0  0  0  0  0  0  0  0  0  0
   28.5700   27.1800   36.3300 N   0  0  0  0  0  0  0  0  0  0  0  0
   29.5300   27.1100   35.3900 C   0  0  0  0  0  0  0  0  0  0  0  0
   30.8300   27.5700   35.6500 C   0  0  0  0  0  0  0  0  0  0  0  0
   31.8500   27.5400   34.6900 C   0  0  0  0  0  0  0  0  0  0  0  0
   31.5100   27.1200   33.4000 C   0  0  0  0  0  0  0  0  0  0  0  0
   30.2200   26.6300   33.1100 C   0  0  0  0  0  0  0  0  0  0  0  0
   29.2400   26.6600   34.1000 C   0  0  0  0  0  0  0  0  0  0  0  0
   27.9300   26.2600   33.8100 C   0  0  0  0  0  0  0  0  0  0  0  0
   27.5200   25.7100   32.6100 N   0  0  0  0  0  0  0  0  0  0  0  0
   31.1582   28.0412   36.9662 N   0  0  0  0  0  0  0  0  0  0  0  0
   31.6255   27.0712   37.9630 C   0  0  0  0  0  0  0  0  0  0  0  0
   32.8094   27.5997   38.7828 C   0  0  0  0  0  0  0  0  0  0  0  0
   33.8158   28.4086   37.9433 C   0  0  0  0  0  0  0  0  0  0  0  0
   33.2808   29.6787   37.4057 N   0  0  0  0  0  0  0  0  0  0  0  0
   31.9859   30.2241   37.8660 C   0  0  0  0  0  0  0  0  0  0  0  0
   30.7833   29.4074   37.3547 C   0  0  0  0  0  0  0  0  0  0  0  0
   34.1648   30.4831   36.5896 C   0  0  0  0  0  0  0  0  0  0  0  0
   35.4126   30.3131   36.6738 O   0  0  0  0  0  0  0  0  0  0  0  0
   33.6601   31.5171   35.6572 C   0  0  0  0  0  0  0  0  0  0  0  0
   34.3268   32.7504   35.5533 C   0  0  0  0  0  0  0  0  0  0  0  0
   33.8710   33.7283   34.6629 C   0  0  0  0  0  0  0  0  0  0  0  0
   32.7483   33.4813   33.8667 C   0  0  0  0  0  0  0  0  0  0  0  0
   32.2969   34.4345   33.0139 F   0  0  0  0  0  0  0  0  0  0  0  0
   32.0909   32.2500   33.9491 C   0  0  0  0  0  0  0  0  0  0  0  0
   32.5492   31.2687   34.8337 C   0  0  0  0  0  0  0  0  0  0  0  0
  1  2  1  0
  2  3  2  0
  2  4  1  0
  4  5  2  0
  5  6  1  0
  6  7  2  0
  7  8  1  0
  8  9  2  0
  9 10  1  0
 10 11  2  0
 11 12  1  0
 12 13  2  0
 13 14  1  0
  8 15  1  0
 15 16  1  0
 16 17  1  0
 17 18  1  0
 18 19  1  0
 19 20  1  0
 20 21  1  0
 19 22  1  0
 22 23  2  0
 22 24  1  0
 24 25  2  0
 25 26  1  0
 26 27  2  0
 27 28  1  0
 27 29  1  0
 29 30  2  0
 13  4  1  0
 21 15  1  0
 30 24  1  0
 12  7  1  0
M  END
>  <AAScore>  (1) 
1019.772475002451

>  <RootName>  (1) 
./4ZLY/04_DeltaGEst/trajectory_02/rank_01/lead_0159

$$$$
