confid_13
     RDKit          3D

 28 31  0  0  0  0  0  0  0  0999 V2000
   24.2000   26.2400   35.6900 N   0  0  0  0  0  0  0  0  0  0  0  0
   24.8500   26.2800   34.4800 C   0  0  0  0  0  0  0  0  0  0  0  0
   24.3100   25.7400   33.5400 O   0  0  0  0  0  0  0  0  0  0  0  0
   26.1800   26.9700   34.4700 C   0  0  0  0  0  0  0  0  0  0  0  0
   26.6500   27.6000   35.5500 N   0  0  0  0  0  0  0  0  0  0  0  0
   27.7900   28.2700   35.6200 N   0  0  0  0  0  0  0  0  0  0  0  0
   28.5400   28.3000   34.5100 C   0  0  0  0  0  0  0  0  0  0  0  0
   29.7700   28.9400   34.5600 C   0  0  0  0  0  0  0  0  0  0  0  0
   30.7000   28.8900   33.5000 C   0  0  0  0  0  0  0  0  0  0  0  0
   30.3700   28.1400   32.3700 C   0  0  0  0  0  0  0  0  0  0  0  0
   29.1200   27.5200   32.2800 C   0  0  0  0  0  0  0  0  0  0  0  0
   28.2100   27.6100   33.3300 C   0  0  0  0  0  0  0  0  0  0  0  0
   26.9700   26.9700   33.3100 C   0  0  0  0  0  0  0  0  0  0  0  0
   26.5300   26.2400   32.2200 N   0  0  0  0  0  0  0  0  0  0  0  0
   30.1406   29.6598   35.7486 N   0  0  0  0  0  0  0  0  0  0  0  0
   30.6005   28.9244   36.9257 C   0  0  0  0  0  0  0  0  0  0  0  0
   29.9773   29.5340   38.1778 C   0  0  0  0  0  0  0  0  0  0  0  0
   30.1266   31.0374   38.2071 C   0  0  0  0  0  0  0  0  0  0  0  0
   30.0138   31.7187   39.4345 C   0  0  0  0  0  0  0  0  0  0  0  0
   29.8047   31.0007   40.5694 F   0  0  0  0  0  0  0  0  0  0  0  0
   30.0956   33.1277   39.4889 C   0  0  0  0  0  0  0  0  0  0  0  0
   29.9925   33.8515   40.7889 C   0  0  0  0  0  0  0  0  0  0  0  0
   30.0494   33.2126   41.8744 O   0  0  0  0  0  0  0  0  0  0  0  0
   29.8444   35.3426   40.8544 C   0  0  0  0  0  0  0  0  0  0  0  0
   30.2771   33.8388   38.2887 C   0  0  0  0  0  0  0  0  0  0  0  0
   30.3679   33.1697   37.0689 C   0  0  0  0  0  0  0  0  0  0  0  0
   30.2807   31.7744   37.0112 C   0  0  0  0  0  0  0  0  0  0  0  0
   30.4129   31.0972   35.6668 C   0  0  0  0  0  0  0  0  0  0  0  0
  1  2  1  0
  2  3  2  0
  2  4  1  0
  4  5  2  0
  5  6  1  0
  6  7  2  0
  7  8  1  0
  8  9  2  0
  9 10  1  0
 10 11  2  0
 11 12  1  0
 12 13  2  0
 13 14  1  0
  8 15  1  0
 15 16  1  0
 16 17  1  0
 17 18  1  0
 18 19  2  0
 19 20  1  0
 19 21  1  0
 21 22  1  0
 22 23  2  0
 22 24  1  0
 21 25  2  0
 25 26  1  0
 26 27  2  0
 27 28  1  0
 13  4  1  0
 28 15  1  0
 12  7  1  0
 27 18  1  0
M  END
>  <AAScore>  (1) 
-9.16013417693678

>  <RootName>  (1) 
./4ZLY/04_DeltaGEst/trajectory_04/rank_01/lead_0191

$$$$
