confid_16
     RDKit          3D

 27 30  0  0  0  0  0  0  0  0999 V2000
   24.4800   26.1000   36.1300 N   0  0  0  0  0  0  0  0  0  0  0  0
   25.2500   26.2500   34.9900 C   0  0  0  0  0  0  0  0  0  0  0  0
   24.7400   25.7600   33.9900 O   0  0  0  0  0  0  0  0  0  0  0  0
   26.5900   26.8900   34.9600 C   0  0  0  0  0  0  0  0  0  0  0  0
   27.0600   27.2400   36.1600 N   0  0  0  0  0  0  0  0  0  0  0  0
   28.3000   27.7100   36.2400 N   0  0  0  0  0  0  0  0  0  0  0  0
   29.0500   27.9600   35.1500 C   0  0  0  0  0  0  0  0  0  0  0  0
   30.3400   28.4900   35.2600 C   0  0  0  0  0  0  0  0  0  0  0  0
   31.1100   28.8200   34.1400 C   0  0  0  0  0  0  0  0  0  0  0  0
   30.5200   28.6700   32.8800 C   0  0  0  0  0  0  0  0  0  0  0  0
   29.2900   28.0200   32.7700 C   0  0  0  0  0  0  0  0  0  0  0  0
   28.5200   27.7100   33.8900 C   0  0  0  0  0  0  0  0  0  0  0  0
   27.2700   27.0800   33.7600 C   0  0  0  0  0  0  0  0  0  0  0  0
   26.7500   26.8800   32.4900 N   0  0  0  0  0  0  0  0  0  0  0  0
   23.1086   25.6595   36.1673 C   0  0  0  0  0  0  0  0  0  0  0  0
   22.3329   25.4582   35.0780 N   0  0  0  0  0  0  0  0  0  0  0  0
   21.1440   25.0847   35.6020 C   0  0  0  0  0  0  0  0  0  0  0  0
   19.9370   24.7237   34.7916 C   0  0  0  0  0  0  0  0  0  0  0  0
   19.0031   23.8767   35.5673 N   0  0  0  0  0  0  0  0  0  0  0  0
   19.4528   22.4748   35.6198 C   0  0  0  0  0  0  0  0  0  0  0  0
   18.7438   24.4297   36.9178 C   0  0  0  0  0  0  0  0  0  0  0  0
   20.0261   24.5715   37.7653 C   0  0  0  0  0  0  0  0  0  0  0  0
   21.1249   25.0831   36.9480 N   0  0  0  0  0  0  0  0  0  0  0  0
   22.3721   25.4284   37.3133 C   0  0  0  0  0  0  0  0  0  0  0  0
   22.8660   25.4457   38.6629 N   0  0  0  0  0  0  0  0  0  0  0  0
   23.9690   24.5679   39.0529 C   0  0  0  0  0  0  0  0  0  0  0  0
   22.1730   26.2114   39.6966 C   0  0  0  0  0  0  0  0  0  0  0  0
  1  2  1  0
  2  3  2  0
  2  4  1  0
  4  5  2  0
  5  6  1  0
  6  7  2  0
  7  8  1  0
  8  9  2  0
  9 10  1  0
 10 11  2  0
 11 12  1  0
 12 13  2  0
 13 14  1  0
  1 15  1  0
 15 16  1  0
 16 17  2  0
 17 18  1  0
 18 19  1  0
 19 20  1  0
 19 21  1  0
 21 22  1  0
 22 23  1  0
 23 24  1  0
 24 25  1  0
 25 26  1  0
 25 27  1  0
 13  4  1  0
 24 15  2  0
 12  7  1  0
 23 17  1  0
M  END
>  <AAScore>  (1) 
7974.204381119945

>  <RootName>  (1) 
./4ZLY/04_DeltaGEst/trajectory_00/rank_01/lead_0383

$$$$
