confid_19
     RDKit          3D

 27 30  0  0  0  0  0  0  0  0999 V2000
   25.3300   26.2600   34.7600 N   0  0  0  0  0  0  0  0  0  0  0  0
   26.1200   25.9200   33.6900 C   0  0  0  0  0  0  0  0  0  0  0  0
   25.6300   25.1100   32.9400 O   0  0  0  0  0  0  0  0  0  0  0  0
   27.5200   26.3800   33.4600 C   0  0  0  0  0  0  0  0  0  0  0  0
   28.1600   26.6300   34.6100 N   0  0  0  0  0  0  0  0  0  0  0  0
   29.4800   26.8500   34.5700 N   0  0  0  0  0  0  0  0  0  0  0  0
   30.1900   26.7800   33.4400 C   0  0  0  0  0  0  0  0  0  0  0  0
   31.5600   27.0500   33.5000 C   0  0  0  0  0  0  0  0  0  0  0  0
   32.2700   27.2400   32.3100 C   0  0  0  0  0  0  0  0  0  0  0  0
   31.6100   27.2500   31.0800 C   0  0  0  0  0  0  0  0  0  0  0  0
   30.2700   26.8700   31.0600 C   0  0  0  0  0  0  0  0  0  0  0  0
   29.5100   26.6900   32.2300 C   0  0  0  0  0  0  0  0  0  0  0  0
   28.1400   26.4100   32.2000 C   0  0  0  0  0  0  0  0  0  0  0  0
   27.4300   26.1300   31.0500 N   0  0  0  0  0  0  0  0  0  0  0  0
   27.5831   24.8144   30.4119 C   0  0  0  0  0  0  0  0  0  0  0  0
   26.7563   24.7284   29.1272 C   0  0  0  0  0  0  0  0  0  0  0  0
   26.9570   25.9496   28.3310 N   0  0  0  0  0  0  0  0  0  0  0  0
   27.3659   25.9143   26.9459 C   0  0  0  0  0  0  0  0  0  0  0  0
   27.1356   26.9116   26.2054 O   0  0  0  0  0  0  0  0  0  0  0  0
   28.1455   24.7611   26.3678 C   0  0  0  0  0  0  0  0  0  0  0  0
   29.4435   24.5807   27.1014 C   0  0  0  0  0  0  0  0  0  0  0  0
   30.4420   25.5399   27.2451 C   0  0  0  0  0  0  0  0  0  0  0  0
   31.5468   25.0802   27.9687 C   0  0  0  0  0  0  0  0  0  0  0  0
   31.4259   23.7606   28.3903 C   0  0  0  0  0  0  0  0  0  0  0  0
   29.9444   23.1644   27.8580 S   0  0  0  0  0  0  0  0  0  0  0  0
   26.7660   27.2622   28.9714 C   0  0  0  0  0  0  0  0  0  0  0  0
   26.5248   27.1359   30.4819 C   0  0  0  0  0  0  0  0  0  0  0  0
  1  2  1  0
  2  3  2  0
  2  4  1  0
  4  5  2  0
  5  6  1  0
  6  7  2  0
  7  8  1  0
  8  9  2  0
  9 10  1  0
 10 11  2  0
 11 12  1  0
 12 13  2  0
 13 14  1  0
 14 15  1  0
 15 16  1  0
 16 17  1  0
 17 18  1  0
 18 19  2  0
 18 20  1  0
 20 21  1  0
 21 22  2  0
 22 23  1  0
 23 24  2  0
 24 25  1  0
 17 26  1  0
 26 27  1  0
 13  4  1  0
 27 14  1  0
 12  7  1  0
 25 21  1  0
M  END
>  <AAScore>  (1) 
-3.1612448478975828

>  <RootName>  (1) 
./4ZLY/04_DeltaGEst/trajectory_03/rank_01/lead_0339

$$$$
