confid_16
     RDKit          3D

 30 33  0  0  0  0  0  0  0  0999 V2000
   24.6900   26.1200   35.5300 N   0  0  0  0  0  0  0  0  0  0  0  0
   25.6600   25.6700   34.6600 C   0  0  0  0  0  0  0  0  0  0  0  0
   25.2400   25.0100   33.7200 O   0  0  0  0  0  0  0  0  0  0  0  0
   27.0300   26.2200   34.8800 C   0  0  0  0  0  0  0  0  0  0  0  0
   27.3500   26.7300   36.0700 N   0  0  0  0  0  0  0  0  0  0  0  0
   28.5700   27.1800   36.3300 N   0  0  0  0  0  0  0  0  0  0  0  0
   29.5300   27.1100   35.3900 C   0  0  0  0  0  0  0  0  0  0  0  0
   30.8300   27.5700   35.6500 C   0  0  0  0  0  0  0  0  0  0  0  0
   31.8500   27.5400   34.6900 C   0  0  0  0  0  0  0  0  0  0  0  0
   31.5100   27.1200   33.4000 C   0  0  0  0  0  0  0  0  0  0  0  0
   30.2200   26.6300   33.1100 C   0  0  0  0  0  0  0  0  0  0  0  0
   29.2400   26.6600   34.1000 C   0  0  0  0  0  0  0  0  0  0  0  0
   27.9300   26.2600   33.8100 C   0  0  0  0  0  0  0  0  0  0  0  0
   27.5200   25.7100   32.6100 N   0  0  0  0  0  0  0  0  0  0  0  0
   31.1576   28.0378   36.9684 N   0  0  0  0  0  0  0  0  0  0  0  0
   31.4734   27.0488   38.0109 C   0  0  0  0  0  0  0  0  0  0  0  0
   30.5438   27.1510   39.2371 C   0  0  0  0  0  0  0  0  0  0  0  0
   29.7571   28.4720   39.3745 C   0  0  0  0  0  0  0  0  0  0  0  0
   30.5903   29.6832   39.5842 N   0  0  0  0  0  0  0  0  0  0  0  0
   31.0849   29.8068   40.9731 C   0  0  0  0  0  0  0  0  0  0  0  0
   29.9584   30.1460   41.9198 C   0  0  0  0  0  0  0  0  0  0  0  0
   29.5239   29.2187   42.8886 C   0  0  0  0  0  0  0  0  0  0  0  0
   30.1151   28.0018   43.0009 F   0  0  0  0  0  0  0  0  0  0  0  0
   28.4721   29.5446   43.7513 C   0  0  0  0  0  0  0  0  0  0  0  0
   27.8403   30.7860   43.6497 C   0  0  0  0  0  0  0  0  0  0  0  0
   28.2590   31.7091   42.6876 C   0  0  0  0  0  0  0  0  0  0  0  0
   29.3169   31.3959   41.8278 C   0  0  0  0  0  0  0  0  0  0  0  0
   29.7209   32.3104   40.9101 F   0  0  0  0  0  0  0  0  0  0  0  0
   31.6991   29.8630   38.6188 C   0  0  0  0  0  0  0  0  0  0  0  0
   31.3274   29.4872   37.1714 C   0  0  0  0  0  0  0  0  0  0  0  0
  1  2  1  0
  2  3  2  0
  2  4  1  0
  4  5  2  0
  5  6  1  0
  6  7  2  0
  7  8  1  0
  8  9  2  0
  9 10  1  0
 10 11  2  0
 11 12  1  0
 12 13  2  0
 13 14  1  0
  8 15  1  0
 15 16  1  0
 16 17  1  0
 17 18  1  0
 18 19  1  0
 19 20  1  0
 20 21  1  0
 21 22  2  0
 22 23  1  0
 22 24  1  0
 24 25  2  0
 25 26  1  0
 26 27  2  0
 27 28  1  0
 19 29  1  0
 29 30  1  0
 13  4  1  0
 30 15  1  0
 12  7  1  0
 27 21  1  0
M  END
>  <AAScore>  (1) 
0.0999995519561395

>  <RootName>  (1) 
./4ZLY/04_DeltaGEst/trajectory_02/rank_01/lead_0111

$$$$
