confid_11
     RDKit          3D

 31 35  0  0  0  0  0  0  0  0999 V2000
   24.2000   26.2400   35.6900 N   0  0  0  0  0  0  0  0  0  0  0  0
   24.8500   26.2800   34.4800 C   0  0  0  0  0  0  0  0  0  0  0  0
   24.3100   25.7400   33.5400 O   0  0  0  0  0  0  0  0  0  0  0  0
   26.1800   26.9700   34.4700 C   0  0  0  0  0  0  0  0  0  0  0  0
   26.6500   27.6000   35.5500 N   0  0  0  0  0  0  0  0  0  0  0  0
   27.7900   28.2700   35.6200 N   0  0  0  0  0  0  0  0  0  0  0  0
   28.5400   28.3000   34.5100 C   0  0  0  0  0  0  0  0  0  0  0  0
   29.7700   28.9400   34.5600 C   0  0  0  0  0  0  0  0  0  0  0  0
   30.7000   28.8900   33.5000 C   0  0  0  0  0  0  0  0  0  0  0  0
   30.3700   28.1400   32.3700 C   0  0  0  0  0  0  0  0  0  0  0  0
   29.1200   27.5200   32.2800 C   0  0  0  0  0  0  0  0  0  0  0  0
   28.2100   27.6100   33.3300 C   0  0  0  0  0  0  0  0  0  0  0  0
   26.9700   26.9700   33.3100 C   0  0  0  0  0  0  0  0  0  0  0  0
   26.5300   26.2400   32.2200 N   0  0  0  0  0  0  0  0  0  0  0  0
   30.1367   29.6822   35.7344 N   0  0  0  0  0  0  0  0  0  0  0  0
   29.5052   30.9844   35.9859 C   0  0  0  0  0  0  0  0  0  0  0  0
   30.1710   31.7159   37.1577 C   0  0  0  0  0  0  0  0  0  0  0  0
   31.6325   31.6107   37.0546 N   0  0  0  0  0  0  0  0  0  0  0  0
   32.4579   32.7301   37.4219 C   0  0  0  0  0  0  0  0  0  0  0  0
   32.0758   33.5229   38.3248 O   0  0  0  0  0  0  0  0  0  0  0  0
   33.7630   32.9580   36.7684 C   0  0  0  0  0  0  0  0  0  0  0  0
   33.8870   33.0426   35.3586 C   0  0  0  0  0  0  0  0  0  0  0  0
   32.6818   32.9680   34.4476 C   0  0  0  0  0  0  0  0  0  0  0  0
   32.5692   34.0916   33.4227 C   0  0  0  0  0  0  0  0  0  0  0  0
   31.6601   34.0835   34.6352 C   0  0  0  0  0  0  0  0  0  0  0  0
   35.1670   33.1639   34.7902 C   0  0  0  0  0  0  0  0  0  0  0  0
   36.2976   33.2702   35.6027 C   0  0  0  0  0  0  0  0  0  0  0  0
   36.1663   33.2447   36.9912 C   0  0  0  0  0  0  0  0  0  0  0  0
   34.9065   33.0891   37.5724 C   0  0  0  0  0  0  0  0  0  0  0  0
   32.2663   30.3118   36.7706 C   0  0  0  0  0  0  0  0  0  0  0  0
   31.2245   29.2045   36.5932 C   0  0  0  0  0  0  0  0  0  0  0  0
  1  2  1  0
  2  3  2  0
  2  4  1  0
  4  5  2  0
  5  6  1  0
  6  7  2  0
  7  8  1  0
  8  9  2  0
  9 10  1  0
 10 11  2  0
 11 12  1  0
 12 13  2  0
 13 14  1  0
  8 15  1  0
 15 16  1  0
 16 17  1  0
 17 18  1  0
 18 19  1  0
 19 20  2  0
 19 21  1  0
 21 22  1  0
 22 23  1  0
 23 24  1  0
 24 25  1  0
 22 26  2  0
 26 27  1  0
 27 28  2  0
 28 29  1  0
 18 30  1  0
 30 31  1  0
 13  4  1  0
 31 15  1  0
 12  7  1  0
 29 21  2  0
 25 23  1  0
M  END
>  <AAScore>  (1) 
-8.459156281220206

>  <RootName>  (1) 
./4ZLY/04_DeltaGEst/trajectory_04/rank_01/lead_0153

$$$$
