confid_16
     RDKit          3D

 30 33  0  0  0  0  0  0  0  0999 V2000
   25.3300   26.2600   34.7600 N   0  0  0  0  0  0  0  0  0  0  0  0
   26.1200   25.9200   33.6900 C   0  0  0  0  0  0  0  0  0  0  0  0
   25.6300   25.1100   32.9400 O   0  0  0  0  0  0  0  0  0  0  0  0
   27.5200   26.3800   33.4600 C   0  0  0  0  0  0  0  0  0  0  0  0
   28.1600   26.6300   34.6100 N   0  0  0  0  0  0  0  0  0  0  0  0
   29.4800   26.8500   34.5700 N   0  0  0  0  0  0  0  0  0  0  0  0
   30.1900   26.7800   33.4400 C   0  0  0  0  0  0  0  0  0  0  0  0
   31.5600   27.0500   33.5000 C   0  0  0  0  0  0  0  0  0  0  0  0
   32.2700   27.2400   32.3100 C   0  0  0  0  0  0  0  0  0  0  0  0
   31.6100   27.2500   31.0800 C   0  0  0  0  0  0  0  0  0  0  0  0
   30.2700   26.8700   31.0600 C   0  0  0  0  0  0  0  0  0  0  0  0
   29.5100   26.6900   32.2300 C   0  0  0  0  0  0  0  0  0  0  0  0
   28.1400   26.4100   32.2000 C   0  0  0  0  0  0  0  0  0  0  0  0
   27.4300   26.1300   31.0500 N   0  0  0  0  0  0  0  0  0  0  0  0
   23.9585   25.8576   34.9656 C   0  0  0  0  0  0  0  0  0  0  0  0
   23.2290   25.1882   34.0341 N   0  0  0  0  0  0  0  0  0  0  0  0
   22.0106   25.1042   34.5990 C   0  0  0  0  0  0  0  0  0  0  0  0
   20.6828   25.1778   33.9042 C   0  0  0  0  0  0  0  0  0  0  0  0
   19.8876   26.0050   34.8214 N   0  0  0  0  0  0  0  0  0  0  0  0
   20.7025   26.3668   35.9362 C   0  0  0  0  0  0  0  0  0  0  0  0
   20.3426   27.1326   36.8681 O   0  0  0  0  0  0  0  0  0  0  0  0
   21.9999   25.7570   35.7828 C   0  0  0  0  0  0  0  0  0  0  0  0
   23.2186   26.2570   36.0349 N   0  0  0  0  0  0  0  0  0  0  0  0
   23.5612   27.2700   37.0277 C   0  0  0  0  0  0  0  0  0  0  0  0
   18.4870   26.3692   34.6245 C   0  0  0  0  0  0  0  0  0  0  0  0
   18.3719   27.8506   34.2458 C   0  0  0  0  0  0  0  0  0  0  0  0
   16.9209   28.2664   33.9921 C   0  0  0  0  0  0  0  0  0  0  0  0
   16.1596   28.0649   35.1306 F   0  0  0  0  0  0  0  0  0  0  0  0
   16.8818   29.6090   33.6583 F   0  0  0  0  0  0  0  0  0  0  0  0
   16.3849   27.5316   32.9480 F   0  0  0  0  0  0  0  0  0  0  0  0
  1  2  1  0
  2  3  2  0
  2  4  1  0
  4  5  2  0
  5  6  1  0
  6  7  2  0
  7  8  1  0
  8  9  2  0
  9 10  1  0
 10 11  2  0
 11 12  1  0
 12 13  2  0
 13 14  1  0
  1 15  1  0
 15 16  2  0
 16 17  1  0
 17 18  1  0
 18 19  1  0
 19 20  1  0
 20 21  2  0
 20 22  1  0
 22 23  1  0
 23 24  1  0
 19 25  1  0
 25 26  1  0
 26 27  1  0
 27 28  1  0
 27 29  1  0
 27 30  1  0
 13  4  1  0
 23 15  1  0
 12  7  1  0
 22 17  2  0
M  END
>  <AAScore>  (1) 
49277.0837033638

>  <RootName>  (1) 
./4ZLY/04_DeltaGEst/trajectory_03/rank_00/lead_0080

$$$$
