confid_8
     RDKit          3D

 27 30  0  0  0  0  0  0  0  0999 V2000
   25.3300   26.2600   34.7600 N   0  0  0  0  0  0  0  0  0  0  0  0
   26.1200   25.9200   33.6900 C   0  0  0  0  0  0  0  0  0  0  0  0
   25.6300   25.1100   32.9400 O   0  0  0  0  0  0  0  0  0  0  0  0
   27.5200   26.3800   33.4600 C   0  0  0  0  0  0  0  0  0  0  0  0
   28.1600   26.6300   34.6100 N   0  0  0  0  0  0  0  0  0  0  0  0
   29.4800   26.8500   34.5700 N   0  0  0  0  0  0  0  0  0  0  0  0
   30.1900   26.7800   33.4400 C   0  0  0  0  0  0  0  0  0  0  0  0
   31.5600   27.0500   33.5000 C   0  0  0  0  0  0  0  0  0  0  0  0
   32.2700   27.2400   32.3100 C   0  0  0  0  0  0  0  0  0  0  0  0
   31.6100   27.2500   31.0800 C   0  0  0  0  0  0  0  0  0  0  0  0
   30.2700   26.8700   31.0600 C   0  0  0  0  0  0  0  0  0  0  0  0
   29.5100   26.6900   32.2300 C   0  0  0  0  0  0  0  0  0  0  0  0
   28.1400   26.4100   32.2000 C   0  0  0  0  0  0  0  0  0  0  0  0
   27.4300   26.1300   31.0500 N   0  0  0  0  0  0  0  0  0  0  0  0
   24.1810   25.5215   35.2299 C   0  0  0  0  0  0  0  0  0  0  0  0
   23.9765   24.2388   34.8256 N   0  0  0  0  0  0  0  0  0  0  0  0
   22.9274   23.4798   35.2416 C   0  0  0  0  0  0  0  0  0  0  0  0
   22.8549   22.0640   34.7213 C   0  0  0  0  0  0  0  0  0  0  0  0
   21.4148   21.5667   34.5162 C   0  0  0  0  0  0  0  0  0  0  0  0
   20.8181   21.0075   35.6758 O   0  0  0  0  0  0  0  0  0  0  0  0
   21.0254   21.7666   36.8568 C   0  0  0  0  0  0  0  0  0  0  0  0
   20.7930   23.2772   36.6892 C   0  0  0  0  0  0  0  0  0  0  0  0
   22.0133   24.0206   36.1808 C   0  0  0  0  0  0  0  0  0  0  0  0
   22.1983   25.3479   36.5985 C   0  0  0  0  0  0  0  0  0  0  0  0
   23.2849   26.1084   36.1360 C   0  0  0  0  0  0  0  0  0  0  0  0
   23.4956   27.4350   36.5470 O   0  0  0  0  0  0  0  0  0  0  0  0
   22.6612   28.1418   37.4590 C   0  0  0  0  0  0  0  0  0  0  0  0
  1  2  1  0
  2  3  2  0
  2  4  1  0
  4  5  2  0
  5  6  1  0
  6  7  2  0
  7  8  1  0
  8  9  2  0
  9 10  1  0
 10 11  2  0
 11 12  1  0
 12 13  2  0
 13 14  1  0
  1 15  1  0
 15 16  2  0
 16 17  1  0
 17 18  1  0
 18 19  1  0
 19 20  1  0
 20 21  1  0
 21 22  1  0
 22 23  1  0
 23 24  1  0
 24 25  2  0
 25 26  1  0
 26 27  1  0
 13  4  1  0
 25 15  1  0
 12  7  1  0
 23 17  2  0
M  END
>  <AAScore>  (1) 
5097.530008378568

>  <RootName>  (1) 
./4ZLY/04_DeltaGEst/trajectory_03/rank_00/lead_0001

$$$$
