confid_3
     RDKit          3D

 30 33  0  0  0  0  0  0  0  0999 V2000
   24.6900   26.1200   35.5300 N   0  0  0  0  0  0  0  0  0  0  0  0
   25.6600   25.6700   34.6600 C   0  0  0  0  0  0  0  0  0  0  0  0
   25.2400   25.0100   33.7200 O   0  0  0  0  0  0  0  0  0  0  0  0
   27.0300   26.2200   34.8800 C   0  0  0  0  0  0  0  0  0  0  0  0
   27.3500   26.7300   36.0700 N   0  0  0  0  0  0  0  0  0  0  0  0
   28.5700   27.1800   36.3300 N   0  0  0  0  0  0  0  0  0  0  0  0
   29.5300   27.1100   35.3900 C   0  0  0  0  0  0  0  0  0  0  0  0
   30.8300   27.5700   35.6500 C   0  0  0  0  0  0  0  0  0  0  0  0
   31.8500   27.5400   34.6900 C   0  0  0  0  0  0  0  0  0  0  0  0
   31.5100   27.1200   33.4000 C   0  0  0  0  0  0  0  0  0  0  0  0
   30.2200   26.6300   33.1100 C   0  0  0  0  0  0  0  0  0  0  0  0
   29.2400   26.6600   34.1000 C   0  0  0  0  0  0  0  0  0  0  0  0
   27.9300   26.2600   33.8100 C   0  0  0  0  0  0  0  0  0  0  0  0
   27.5200   25.7100   32.6100 N   0  0  0  0  0  0  0  0  0  0  0  0
   31.1562   28.1184   36.9813 C   0  0  0  0  0  0  0  0  0  0  0  0
   31.9457   27.3834   37.8732 C   0  0  0  0  0  0  0  0  0  0  0  0
   32.2514   27.8902   39.1492 C   0  0  0  0  0  0  0  0  0  0  0  0
   33.0815   27.0384   40.0894 C   0  0  0  0  0  0  0  0  0  0  0  0
   32.2030   26.3356   41.1541 C   0  0  0  0  0  0  0  0  0  0  0  0
   32.7483   26.4102   42.5331 N   0  0  0  0  0  0  0  0  0  0  0  0
   33.0371   27.7648   43.0799 C   0  0  0  0  0  0  0  0  0  0  0  0
   31.8398   28.7420   43.1708 C   0  0  0  0  0  0  0  0  0  0  0  0
   31.1525   28.9448   41.8781 N   0  0  0  0  0  0  0  0  0  0  0  0
   29.8053   29.5310   42.0629 C   0  0  0  0  0  0  0  0  0  0  0  0
   28.7758   28.4344   42.3247 C   0  0  0  0  0  0  0  0  0  0  0  0
   31.9586   29.7262   40.9147 C   0  0  0  0  0  0  0  0  0  0  0  0
   31.7464   29.1638   39.5293 C   0  0  0  0  0  0  0  0  0  0  0  0
   30.9608   29.8906   38.6195 C   0  0  0  0  0  0  0  0  0  0  0  0
   30.6694   29.3732   37.3578 C   0  0  0  0  0  0  0  0  0  0  0  0
   31.9072   25.6278   43.4558 C   0  0  0  0  0  0  0  0  0  0  0  0
  1  2  1  0
  2  3  2  0
  2  4  1  0
  4  5  2  0
  5  6  1  0
  6  7  2  0
  7  8  1  0
  8  9  2  0
  9 10  1  0
 10 11  2  0
 11 12  1  0
 12 13  2  0
 13 14  1  0
  8 15  1  0
 15 16  2  0
 16 17  1  0
 17 18  1  0
 18 19  1  0
 19 20  1  0
 20 21  1  0
 21 22  1  0
 22 23  1  0
 23 24  1  0
 24 25  1  0
 23 26  1  0
 26 27  1  0
 27 28  1  0
 28 29  2  0
 20 30  1  0
 13  4  1  0
 29 15  1  0
 12  7  1  0
 27 17  2  0
M  END
>  <AAScore>  (1) 
101.10726863853236

>  <RootName>  (1) 
./4ZLY/04_DeltaGEst/trajectory_02/rank_01/lead_0316

$$$$
