confid_14
     RDKit          3D

 26 28  0  0  0  0  0  0  0  0999 V2000
   24.2000   26.2400   35.6900 N   0  0  0  0  0  0  0  0  0  0  0  0
   24.8500   26.2800   34.4800 C   0  0  0  0  0  0  0  0  0  0  0  0
   24.3100   25.7400   33.5400 O   0  0  0  0  0  0  0  0  0  0  0  0
   26.1800   26.9700   34.4700 C   0  0  0  0  0  0  0  0  0  0  0  0
   26.6500   27.6000   35.5500 N   0  0  0  0  0  0  0  0  0  0  0  0
   27.7900   28.2700   35.6200 N   0  0  0  0  0  0  0  0  0  0  0  0
   28.5400   28.3000   34.5100 C   0  0  0  0  0  0  0  0  0  0  0  0
   29.7700   28.9400   34.5600 C   0  0  0  0  0  0  0  0  0  0  0  0
   30.7000   28.8900   33.5000 C   0  0  0  0  0  0  0  0  0  0  0  0
   30.3700   28.1400   32.3700 C   0  0  0  0  0  0  0  0  0  0  0  0
   29.1200   27.5200   32.2800 C   0  0  0  0  0  0  0  0  0  0  0  0
   28.2100   27.6100   33.3300 C   0  0  0  0  0  0  0  0  0  0  0  0
   26.9700   26.9700   33.3100 C   0  0  0  0  0  0  0  0  0  0  0  0
   26.5300   26.2400   32.2200 N   0  0  0  0  0  0  0  0  0  0  0  0
   30.1432   29.6927   35.7297 N   0  0  0  0  0  0  0  0  0  0  0  0
   31.2988   29.3807   36.5391 C   0  0  0  0  0  0  0  0  0  0  0  0
   31.1853   30.3364   37.7185 C   0  0  0  0  0  0  0  0  0  0  0  0
   30.3090   31.4462   37.2984 N   0  0  0  0  0  0  0  0  0  0  0  0
   31.2992   32.7556   36.6600 S   0  0  0  0  0  6  0  0  0  0  0  0
   32.0481   32.2926   35.4404 O   0  0  0  0  0  0  0  0  0  0  0  0
   30.4229   33.9211   36.2931 O   0  0  0  0  0  0  0  0  0  0  0  0
   32.4777   33.3116   37.8973 C   0  0  0  0  0  0  0  0  0  0  0  0
   32.9376   34.7593   37.6776 C   0  0  0  0  0  0  0  0  0  0  0  0
   33.7851   34.9229   36.4167 C   0  0  0  0  0  0  0  0  0  0  0  0
   29.4080   30.8128   36.3028 C   0  0  1  0  0  0  0  0  0  0  0  0
   28.8256   31.7442   35.2244 C   0  0  0  0  0  0  0  0  0  0  0  0
  1  2  1  0
  2  3  2  0
  2  4  1  0
  4  5  2  0
  5  6  1  0
  6  7  2  0
  7  8  1  0
  8  9  2  0
  9 10  1  0
 10 11  2  0
 11 12  1  0
 12 13  2  0
 13 14  1  0
  8 15  1  0
 15 16  1  0
 16 17  1  0
 17 18  1  0
 18 19  1  0
 19 20  2  0
 19 21  2  0
 19 22  1  0
 22 23  1  0
 23 24  1  0
 18 25  1  0
 25 26  1  6
 13  4  1  0
 25 15  1  0
 12  7  1  0
M  END
>  <AAScore>  (1) 
-7.835810936136813

>  <RootName>  (1) 
./4ZLY/04_DeltaGEst/trajectory_04/rank_01/lead_0287

$$$$
