confid_1
     RDKit          3D

 27 30  0  0  0  0  0  0  0  0999 V2000
   24.5500   26.3900   36.2500 N   0  0  0  0  0  0  0  0  0  0  0  0
   25.6000   26.1300   35.4000 C   0  0  0  0  0  0  0  0  0  0  0  0
   25.4300   25.4300   34.4200 O   0  0  0  0  0  0  0  0  0  0  0  0
   26.9800   26.6300   35.7100 C   0  0  0  0  0  0  0  0  0  0  0  0
   27.3200   26.8200   36.9800 N   0  0  0  0  0  0  0  0  0  0  0  0
   28.4700   27.4000   37.3100 N   0  0  0  0  0  0  0  0  0  0  0  0
   29.4000   27.6300   36.3700 C   0  0  0  0  0  0  0  0  0  0  0  0
   30.6600   28.0500   36.8000 C   0  0  0  0  0  0  0  0  0  0  0  0
   31.5700   28.3600   35.7800 C   0  0  0  0  0  0  0  0  0  0  0  0
   31.3700   28.1000   34.4300 C   0  0  0  0  0  0  0  0  0  0  0  0
   30.1200   27.5900   34.0500 C   0  0  0  0  0  0  0  0  0  0  0  0
   29.1500   27.3400   35.0300 C   0  0  0  0  0  0  0  0  0  0  0  0
   27.8800   26.8900   34.6600 C   0  0  0  0  0  0  0  0  0  0  0  0
   27.4800   26.6100   33.3700 N   0  0  0  0  0  0  0  0  0  0  0  0
   31.0052   28.2803   38.2261 C   0  0  0  0  0  0  0  0  0  0  0  0
   30.8010   27.2715   39.1797 C   0  0  0  0  0  0  0  0  0  0  0  0
   31.1249   27.4793   40.5261 C   0  0  0  0  0  0  0  0  0  0  0  0
   30.9412   26.4203   41.4141 O   0  0  0  0  0  0  0  0  0  0  0  0
   29.8612   26.3933   42.3427 C   0  0  0  0  0  0  0  0  0  0  0  0
   30.3537   26.4107   43.7361 N   0  0  0  0  0  0  0  0  0  0  0  0
   30.6623   25.0438   44.1878 C   0  0  0  0  0  0  0  0  0  0  0  0
   31.5425   27.2733   43.9139 C   0  0  0  0  0  0  0  0  0  0  0  0
   31.3023   28.7130   43.4287 C   0  0  0  0  0  0  0  0  0  0  0  0
   32.0577   29.0050   42.2533 O   0  0  0  0  0  0  0  0  0  0  0  0
   31.6719   28.7190   40.9342 C   0  0  0  0  0  0  0  0  0  0  0  0
   31.9032   29.7086   39.9712 C   0  0  0  0  0  0  0  0  0  0  0  0
   31.5699   29.4976   38.6320 C   0  0  0  0  0  0  0  0  0  0  0  0
  1  2  1  0
  2  3  2  0
  2  4  1  0
  4  5  2  0
  5  6  1  0
  6  7  2  0
  7  8  1  0
  8  9  2  0
  9 10  1  0
 10 11  2  0
 11 12  1  0
 12 13  2  0
 13 14  1  0
  8 15  1  0
 15 16  2  0
 16 17  1  0
 17 18  1  0
 18 19  1  0
 19 20  1  0
 20 21  1  0
 20 22  1  0
 22 23  1  0
 23 24  1  0
 24 25  1  0
 25 26  1  0
 26 27  2  0
 13  4  1  0
 27 15  1  0
 12  7  1  0
 25 17  2  0
M  END
>  <AAScore>  (1) 
26.486877227134208

>  <RootName>  (1) 
./4ZLY/04_DeltaGEst/trajectory_01/rank_01/lead_0388

$$$$
