confid_9
     RDKit          3D

 28 31  0  0  0  0  0  0  0  0999 V2000
   24.6900   26.1200   35.5300 N   0  0  0  0  0  0  0  0  0  0  0  0
   25.6600   25.6700   34.6600 C   0  0  0  0  0  0  0  0  0  0  0  0
   25.2400   25.0100   33.7200 O   0  0  0  0  0  0  0  0  0  0  0  0
   27.0300   26.2200   34.8800 C   0  0  0  0  0  0  0  0  0  0  0  0
   27.3500   26.7300   36.0700 N   0  0  0  0  0  0  0  0  0  0  0  0
   28.5700   27.1800   36.3300 N   0  0  0  0  0  0  0  0  0  0  0  0
   29.5300   27.1100   35.3900 C   0  0  0  0  0  0  0  0  0  0  0  0
   30.8300   27.5700   35.6500 C   0  0  0  0  0  0  0  0  0  0  0  0
   31.8500   27.5400   34.6900 C   0  0  0  0  0  0  0  0  0  0  0  0
   31.5100   27.1200   33.4000 C   0  0  0  0  0  0  0  0  0  0  0  0
   30.2200   26.6300   33.1100 C   0  0  0  0  0  0  0  0  0  0  0  0
   29.2400   26.6600   34.1000 C   0  0  0  0  0  0  0  0  0  0  0  0
   27.9300   26.2600   33.8100 C   0  0  0  0  0  0  0  0  0  0  0  0
   27.5200   25.7100   32.6100 N   0  0  0  0  0  0  0  0  0  0  0  0
   31.1791   28.0632   37.0081 C   0  0  0  0  0  0  0  0  0  0  0  0
   31.9297   29.2363   37.1804 C   0  0  0  0  0  0  0  0  0  0  0  0
   32.2456   29.6908   38.4712 C   0  0  0  0  0  0  0  0  0  0  0  0
   33.0845   30.9521   38.6156 C   0  0  0  0  0  0  0  0  0  0  0  0
   32.6912   31.8980   39.7742 C   0  0  0  0  0  0  0  0  0  0  0  0
   31.3064   31.6419   40.2499 N   0  0  0  0  0  0  0  0  0  0  0  0
   31.3199   30.6381   41.3481 C   0  0  0  0  0  0  0  0  0  0  0  0
   32.1201   29.3701   40.9933 C   0  0  0  0  0  0  0  0  0  0  0  0
   31.8274   28.9249   39.5846 C   0  0  0  0  0  0  0  0  0  0  0  0
   31.0698   27.7652   39.3658 C   0  0  0  0  0  0  0  0  0  0  0  0
   30.7708   27.3677   38.1032 N   0  0  0  0  0  0  0  0  0  0  0  0
   30.6054   32.9153   40.5972 C   0  0  0  0  0  0  0  0  0  0  0  0
   30.1432   33.6149   39.3052 C   0  0  0  0  0  0  0  0  0  0  0  0
   29.3618   32.7202   41.4923 C   0  0  0  0  0  0  0  0  0  0  0  0
  1  2  1  0
  2  3  2  0
  2  4  1  0
  4  5  2  0
  5  6  1  0
  6  7  2  0
  7  8  1  0
  8  9  2  0
  9 10  1  0
 10 11  2  0
 11 12  1  0
 12 13  2  0
 13 14  1  0
  8 15  1  0
 15 16  2  0
 16 17  1  0
 17 18  1  0
 18 19  1  0
 19 20  1  0
 20 21  1  0
 21 22  1  0
 22 23  1  0
 23 24  1  0
 24 25  2  0
 20 26  1  0
 26 27  1  0
 26 28  1  0
 13  4  1  0
 25 15  1  0
 12  7  1  0
 23 17  2  0
M  END
>  <AAScore>  (1) 
75.60466063357903

>  <RootName>  (1) 
./4ZLY/04_DeltaGEst/trajectory_02/rank_01/lead_0067

$$$$
