confid_6
     RDKit          3D

 27 30  0  0  0  0  0  0  0  0999 V2000
   24.5500   26.3900   36.2500 N   0  0  0  0  0  0  0  0  0  0  0  0
   25.6000   26.1300   35.4000 C   0  0  0  0  0  0  0  0  0  0  0  0
   25.4300   25.4300   34.4200 O   0  0  0  0  0  0  0  0  0  0  0  0
   26.9800   26.6300   35.7100 C   0  0  0  0  0  0  0  0  0  0  0  0
   27.3200   26.8200   36.9800 N   0  0  0  0  0  0  0  0  0  0  0  0
   28.4700   27.4000   37.3100 N   0  0  0  0  0  0  0  0  0  0  0  0
   29.4000   27.6300   36.3700 C   0  0  0  0  0  0  0  0  0  0  0  0
   30.6600   28.0500   36.8000 C   0  0  0  0  0  0  0  0  0  0  0  0
   31.5700   28.3600   35.7800 C   0  0  0  0  0  0  0  0  0  0  0  0
   31.3700   28.1000   34.4300 C   0  0  0  0  0  0  0  0  0  0  0  0
   30.1200   27.5900   34.0500 C   0  0  0  0  0  0  0  0  0  0  0  0
   29.1500   27.3400   35.0300 C   0  0  0  0  0  0  0  0  0  0  0  0
   27.8800   26.8900   34.6600 C   0  0  0  0  0  0  0  0  0  0  0  0
   27.4800   26.6100   33.3700 N   0  0  0  0  0  0  0  0  0  0  0  0
   30.9652   28.2812   38.1859 N   0  0  0  0  0  0  0  0  0  0  0  0
   31.1629   27.1295   39.0742 C   0  0  0  0  0  0  0  0  0  0  0  0
   30.7281   27.4627   40.5060 C   0  0  0  0  0  0  0  0  0  0  0  0
   31.3686   28.7403   40.9905 C   0  0  0  0  0  0  0  0  0  0  0  0
   31.6334   28.9201   42.3572 C   0  0  0  0  0  0  0  0  0  0  0  0
   32.1601   30.1290   42.8205 C   0  0  0  0  0  0  0  0  0  0  0  0
   32.4105   31.1730   41.9254 C   0  0  0  0  0  0  0  0  0  0  0  0
   32.9184   32.3468   42.3762 F   0  0  0  0  0  0  0  0  0  0  0  0
   32.1335   31.0115   40.5648 C   0  0  0  0  0  0  0  0  0  0  0  0
   31.6094   29.7974   40.0894 C   0  0  0  0  0  0  0  0  0  0  0  0
   31.3115   29.5976   38.6563 C   0  0  0  0  0  0  0  0  0  0  0  0
   31.3365   30.5750   37.8585 O   0  0  0  0  0  0  0  0  0  0  0  0
   32.4194   30.2904   44.1417 F   0  0  0  0  0  0  0  0  0  0  0  0
  1  2  1  0
  2  3  2  0
  2  4  1  0
  4  5  2  0
  5  6  1  0
  6  7  2  0
  7  8  1  0
  8  9  2  0
  9 10  1  0
 10 11  2  0
 11 12  1  0
 12 13  2  0
 13 14  1  0
  8 15  1  0
 15 16  1  0
 16 17  1  0
 17 18  1  0
 18 19  2  0
 19 20  1  0
 20 21  2  0
 21 22  1  0
 21 23  1  0
 23 24  2  0
 24 25  1  0
 25 26  2  0
 20 27  1  0
 13  4  1  0
 25 15  1  0
 12  7  1  0
 24 18  1  0
M  END
>  <AAScore>  (1) 
398.6263553556228

>  <RootName>  (1) 
./4ZLY/04_DeltaGEst/trajectory_01/rank_01/lead_0429

$$$$
