confid_15
     RDKit          3D

 29 32  0  0  0  0  0  0  0  0999 V2000
   24.6900   26.1200   35.5300 N   0  0  0  0  0  0  0  0  0  0  0  0
   25.6600   25.6700   34.6600 C   0  0  0  0  0  0  0  0  0  0  0  0
   25.2400   25.0100   33.7200 O   0  0  0  0  0  0  0  0  0  0  0  0
   27.0300   26.2200   34.8800 C   0  0  0  0  0  0  0  0  0  0  0  0
   27.3500   26.7300   36.0700 N   0  0  0  0  0  0  0  0  0  0  0  0
   28.5700   27.1800   36.3300 N   0  0  0  0  0  0  0  0  0  0  0  0
   29.5300   27.1100   35.3900 C   0  0  0  0  0  0  0  0  0  0  0  0
   30.8300   27.5700   35.6500 C   0  0  0  0  0  0  0  0  0  0  0  0
   31.8500   27.5400   34.6900 C   0  0  0  0  0  0  0  0  0  0  0  0
   31.5100   27.1200   33.4000 C   0  0  0  0  0  0  0  0  0  0  0  0
   30.2200   26.6300   33.1100 C   0  0  0  0  0  0  0  0  0  0  0  0
   29.2400   26.6600   34.1000 C   0  0  0  0  0  0  0  0  0  0  0  0
   27.9300   26.2600   33.8100 C   0  0  0  0  0  0  0  0  0  0  0  0
   27.5200   25.7100   32.6100 N   0  0  0  0  0  0  0  0  0  0  0  0
   23.3015   26.2576   35.1779 C   0  0  0  0  0  0  0  0  0  0  0  0
   22.4031   25.8262   36.0066 N   0  0  0  0  0  0  0  0  0  0  0  0
   21.0000   25.8880   35.7321 C   0  0  0  0  0  0  0  0  0  0  0  0
   20.5349   26.3050   34.5386 C   0  0  0  0  0  0  0  0  0  0  0  0
   19.0522   26.2033   34.2899 C   0  0  0  0  0  0  0  0  0  0  0  0
   18.8037   25.1091   33.3490 N   0  0  0  0  0  0  0  0  0  0  0  0
   19.3814   25.1981   32.0390 C   0  0  0  0  0  0  0  0  0  0  0  0
   19.5310   24.1664   31.3296 O   0  0  0  0  0  0  0  0  0  0  0  0
   19.7964   26.5323   31.5107 C   0  0  0  0  0  0  0  0  0  0  0  0
   21.1211   27.0611   32.0949 C   0  0  0  0  0  0  0  0  0  0  0  0
   21.4757   26.7212   33.5015 N   0  0  0  0  0  0  0  0  0  0  0  0
   22.8599   26.9050   33.9151 C   0  0  0  0  0  0  0  0  0  0  0  0
   23.6914   27.7389   33.2647 C   0  0  0  0  0  0  0  0  0  0  0  0
   18.1010   23.8948   33.7813 C   0  0  0  0  0  0  0  0  0  0  0  0
   19.0791   22.8944   34.3861 C   0  0  0  0  0  0  0  0  0  0  0  0
  1  2  1  0
  2  3  2  0
  2  4  1  0
  4  5  2  0
  5  6  1  0
  6  7  2  0
  7  8  1  0
  8  9  2  0
  9 10  1  0
 10 11  2  0
 11 12  1  0
 12 13  2  0
 13 14  1  0
  1 15  1  0
 15 16  2  0
 16 17  1  0
 17 18  2  0
 18 19  1  0
 19 20  1  0
 20 21  1  0
 21 22  2  0
 21 23  1  0
 23 24  1  0
 24 25  1  0
 25 26  1  0
 26 27  2  3
 20 28  1  0
 28 29  1  0
 13  4  1  0
 26 15  1  0
 12  7  1  0
 25 18  1  0
M  END
>  <AAScore>  (1) 
534.5505560417043

>  <RootName>  (1) 
./4ZLY/04_DeltaGEst/trajectory_02/rank_00/lead_0345

$$$$
