confid_9
     RDKit          3D

 30 33  0  0  0  0  0  0  0  0999 V2000
   24.6900   26.1200   35.5300 N   0  0  0  0  0  0  0  0  0  0  0  0
   25.6600   25.6700   34.6600 C   0  0  0  0  0  0  0  0  0  0  0  0
   25.2400   25.0100   33.7200 O   0  0  0  0  0  0  0  0  0  0  0  0
   27.0300   26.2200   34.8800 C   0  0  0  0  0  0  0  0  0  0  0  0
   27.3500   26.7300   36.0700 N   0  0  0  0  0  0  0  0  0  0  0  0
   28.5700   27.1800   36.3300 N   0  0  0  0  0  0  0  0  0  0  0  0
   29.5300   27.1100   35.3900 C   0  0  0  0  0  0  0  0  0  0  0  0
   30.8300   27.5700   35.6500 C   0  0  0  0  0  0  0  0  0  0  0  0
   31.8500   27.5400   34.6900 C   0  0  0  0  0  0  0  0  0  0  0  0
   31.5100   27.1200   33.4000 C   0  0  0  0  0  0  0  0  0  0  0  0
   30.2200   26.6300   33.1100 C   0  0  0  0  0  0  0  0  0  0  0  0
   29.2400   26.6600   34.1000 C   0  0  0  0  0  0  0  0  0  0  0  0
   27.9300   26.2600   33.8100 C   0  0  0  0  0  0  0  0  0  0  0  0
   27.5200   25.7100   32.6100 N   0  0  0  0  0  0  0  0  0  0  0  0
   23.5261   25.3704   35.9177 C   0  0  0  0  0  0  0  0  0  0  0  0
   22.4008   25.9692   36.1463 N   0  0  0  0  0  0  0  0  0  0  0  0
   21.4715   24.9928   36.5843 C   0  0  0  0  0  0  0  0  0  0  0  0
   22.0494   23.8070   36.6745 C   0  0  0  0  0  0  0  0  0  0  0  0
   21.3956   22.5244   36.3157 C   0  0  0  0  0  0  0  0  0  0  0  0
   22.4023   21.9786   35.3677 C   0  0  0  0  0  0  0  0  0  0  0  0
   22.2499   20.9208   34.7772 O   0  0  0  0  0  0  0  0  0  0  0  0
   23.6075   22.8540   35.1806 C   0  0  0  0  0  0  0  0  0  0  0  0
   23.4924   23.9029   36.3109 C   0  0  1  0  0  0  0  0  0  0  0  0
   24.3185   23.5809   37.5892 C   0  0  0  0  0  0  0  0  0  0  0  0
   25.8397   23.4885   37.3924 C   0  0  0  0  0  0  0  0  0  0  0  0
   26.5153   23.3314   38.6919 N   0  0  0  0  0  0  0  0  0  0  0  0
   26.3909   22.0973   39.4310 C   0  0  0  0  0  0  0  0  0  0  0  0
   26.8625   21.9866   40.8492 C   0  0  0  0  0  0  0  0  0  0  0  0
   25.8668   21.0874   38.8883 O   0  0  0  0  0  0  0  0  0  0  0  0
   27.3715   24.4095   39.2059 C   0  0  0  0  0  0  0  0  0  0  0  0
  1  2  1  0
  2  3  2  0
  2  4  1  0
  4  5  2  0
  5  6  1  0
  6  7  2  0
  7  8  1  0
  8  9  2  0
  9 10  1  0
 10 11  2  0
 11 12  1  0
 12 13  2  0
 13 14  1  0
  1 15  1  0
 15 16  2  0
 16 17  1  0
 17 18  2  0
 18 19  1  0
 19 20  1  0
 20 21  2  0
 20 22  1  0
 22 23  1  0
 23 24  1  1
 24 25  1  0
 25 26  1  0
 26 27  1  0
 27 28  1  0
 27 29  2  0
 26 30  1  0
 13  4  1  0
 23 15  1  0
 12  7  1  0
 23 18  1  0
M  END
>  <AAScore>  (1) 
4063.7287419859736

>  <RootName>  (1) 
./4ZLY/04_DeltaGEst/trajectory_02/rank_00/lead_0414

$$$$
