confid_5
     RDKit          3D

 27 30  0  0  0  0  0  0  0  0999 V2000
   24.6900   26.1200   35.5300 N   0  0  0  0  0  0  0  0  0  0  0  0
   25.6600   25.6700   34.6600 C   0  0  0  0  0  0  0  0  0  0  0  0
   25.2400   25.0100   33.7200 O   0  0  0  0  0  0  0  0  0  0  0  0
   27.0300   26.2200   34.8800 C   0  0  0  0  0  0  0  0  0  0  0  0
   27.3500   26.7300   36.0700 N   0  0  0  0  0  0  0  0  0  0  0  0
   28.5700   27.1800   36.3300 N   0  0  0  0  0  0  0  0  0  0  0  0
   29.5300   27.1100   35.3900 C   0  0  0  0  0  0  0  0  0  0  0  0
   30.8300   27.5700   35.6500 C   0  0  0  0  0  0  0  0  0  0  0  0
   31.8500   27.5400   34.6900 C   0  0  0  0  0  0  0  0  0  0  0  0
   31.5100   27.1200   33.4000 C   0  0  0  0  0  0  0  0  0  0  0  0
   30.2200   26.6300   33.1100 C   0  0  0  0  0  0  0  0  0  0  0  0
   29.2400   26.6600   34.1000 C   0  0  0  0  0  0  0  0  0  0  0  0
   27.9300   26.2600   33.8100 C   0  0  0  0  0  0  0  0  0  0  0  0
   27.5200   25.7100   32.6100 N   0  0  0  0  0  0  0  0  0  0  0  0
   31.1487   28.0534   36.9641 N   0  0  0  0  0  0  0  0  0  0  0  0
   31.3271   27.1039   38.0762 C   0  0  0  0  0  0  0  0  0  0  0  0
   31.1377   27.7968   39.4458 C   0  0  0  0  0  0  0  0  0  0  0  0
   32.0456   29.0348   39.6067 C   0  0  0  0  0  0  0  0  0  0  0  0
   31.9595   29.8893   38.3771 C   0  0  0  0  0  0  0  0  0  0  0  0
   32.3340   31.1705   38.2168 N   0  0  0  0  0  0  0  0  0  0  0  0
   32.9040   32.0856   39.2076 C   0  0  0  0  0  0  0  0  0  0  0  0
   34.4206   32.2635   38.9953 C   0  0  0  0  0  0  0  0  0  0  0  0
   34.9659   33.3366   39.9450 C   0  0  0  0  0  0  0  0  0  0  0  0
   35.1762   30.9436   39.2003 C   0  0  0  0  0  0  0  0  0  0  0  0
   32.1321   31.4304   36.9030 C   0  0  0  0  0  0  0  0  0  0  0  0
   31.6587   30.3620   36.2160 N   0  0  0  0  0  0  0  0  0  0  0  0
   31.5725   29.4080   37.1637 C   0  0  0  0  0  0  0  0  0  0  0  0
  1  2  1  0
  2  3  2  0
  2  4  1  0
  4  5  2  0
  5  6  1  0
  6  7  2  0
  7  8  1  0
  8  9  2  0
  9 10  1  0
 10 11  2  0
 11 12  1  0
 12 13  2  0
 13 14  1  0
  8 15  1  0
 15 16  1  0
 16 17  1  0
 17 18  1  0
 18 19  1  0
 19 20  1  0
 20 21  1  0
 21 22  1  0
 22 23  1  0
 22 24  1  0
 20 25  1  0
 25 26  2  0
 26 27  1  0
 13  4  1  0
 27 15  1  0
 12  7  1  0
 27 19  2  0
M  END
>  <AAScore>  (1) 
-1.919481589261517

>  <RootName>  (1) 
./4ZLY/04_DeltaGEst/trajectory_02/rank_01/lead_0002

$$$$
