confid_16
     RDKit          3D

 27 30  0  0  0  0  0  0  0  0999 V2000
   24.6900   26.1200   35.5300 N   0  0  0  0  0  0  0  0  0  0  0  0
   25.6600   25.6700   34.6600 C   0  0  0  0  0  0  0  0  0  0  0  0
   25.2400   25.0100   33.7200 O   0  0  0  0  0  0  0  0  0  0  0  0
   27.0300   26.2200   34.8800 C   0  0  0  0  0  0  0  0  0  0  0  0
   27.3500   26.7300   36.0700 N   0  0  0  0  0  0  0  0  0  0  0  0
   28.5700   27.1800   36.3300 N   0  0  0  0  0  0  0  0  0  0  0  0
   29.5300   27.1100   35.3900 C   0  0  0  0  0  0  0  0  0  0  0  0
   30.8300   27.5700   35.6500 C   0  0  0  0  0  0  0  0  0  0  0  0
   31.8500   27.5400   34.6900 C   0  0  0  0  0  0  0  0  0  0  0  0
   31.5100   27.1200   33.4000 C   0  0  0  0  0  0  0  0  0  0  0  0
   30.2200   26.6300   33.1100 C   0  0  0  0  0  0  0  0  0  0  0  0
   29.2400   26.6600   34.1000 C   0  0  0  0  0  0  0  0  0  0  0  0
   27.9300   26.2600   33.8100 C   0  0  0  0  0  0  0  0  0  0  0  0
   27.5200   25.7100   32.6100 N   0  0  0  0  0  0  0  0  0  0  0  0
   23.2924   26.2496   35.2185 C   0  0  0  0  0  0  0  0  0  0  0  0
   22.3712   26.0100   36.2009 N   0  0  0  0  0  0  0  0  0  0  0  0
   21.0320   26.0984   35.9747 C   0  0  0  0  0  0  0  0  0  0  0  0
   20.5915   26.4669   34.7077 C   0  0  0  0  0  0  0  0  0  0  0  0
   19.2129   26.4686   34.1883 C   0  0  0  0  0  0  0  0  0  0  0  0
   19.3486   26.6198   32.7192 N   0  0  0  0  0  0  0  0  0  0  0  0
   19.0615   25.3496   32.0307 C   0  0  0  0  0  0  0  0  0  0  0  0
   20.7462   27.0692   32.4509 C   0  0  2  0  0  0  0  0  0  0  0  0
   21.4761   26.7716   33.7217 C   0  0  0  0  0  0  0  0  0  0  0  0
   22.8521   26.6381   33.9335 C   0  0  0  0  0  0  0  0  0  0  0  0
   20.7395   28.5250   32.1459 N   0  0  0  0  0  0  0  0  0  0  0  0
   19.8911   28.7901   30.9683 C   0  0  0  0  0  0  0  0  0  0  0  0
   22.0956   29.0404   31.8799 C   0  0  0  0  0  0  0  0  0  0  0  0
  1  2  1  0
  2  3  2  0
  2  4  1  0
  4  5  2  0
  5  6  1  0
  6  7  2  0
  7  8  1  0
  8  9  2  0
  9 10  1  0
 10 11  2  0
 11 12  1  0
 12 13  2  0
 13 14  1  0
  1 15  1  0
 15 16  2  0
 16 17  1  0
 17 18  2  0
 18 19  1  0
 19 20  1  0
 20 21  1  0
 20 22  1  0
 22 23  1  0
 23 24  2  0
 22 25  1  1
 25 26  1  0
 25 27  1  0
 13  4  1  0
 24 15  1  0
 12  7  1  0
 23 18  1  0
M  END
>  <AAScore>  (1) 
570.4911785287233

>  <RootName>  (1) 
./4ZLY/04_DeltaGEst/trajectory_02/rank_00/lead_0152

$$$$
