confid_1
     RDKit          3D

 26 29  0  0  0  0  0  0  0  0999 V2000
   24.5500   26.3900   36.2500 N   0  0  0  0  0  0  0  0  0  0  0  0
   25.6000   26.1300   35.4000 C   0  0  0  0  0  0  0  0  0  0  0  0
   25.4300   25.4300   34.4200 O   0  0  0  0  0  0  0  0  0  0  0  0
   26.9800   26.6300   35.7100 C   0  0  0  0  0  0  0  0  0  0  0  0
   27.3200   26.8200   36.9800 N   0  0  0  0  0  0  0  0  0  0  0  0
   28.4700   27.4000   37.3100 N   0  0  0  0  0  0  0  0  0  0  0  0
   29.4000   27.6300   36.3700 C   0  0  0  0  0  0  0  0  0  0  0  0
   30.6600   28.0500   36.8000 C   0  0  0  0  0  0  0  0  0  0  0  0
   31.5700   28.3600   35.7800 C   0  0  0  0  0  0  0  0  0  0  0  0
   31.3700   28.1000   34.4300 C   0  0  0  0  0  0  0  0  0  0  0  0
   30.1200   27.5900   34.0500 C   0  0  0  0  0  0  0  0  0  0  0  0
   29.1500   27.3400   35.0300 C   0  0  0  0  0  0  0  0  0  0  0  0
   27.8800   26.8900   34.6600 C   0  0  0  0  0  0  0  0  0  0  0  0
   27.4800   26.6100   33.3700 N   0  0  0  0  0  0  0  0  0  0  0  0
   31.0184   28.2814   38.2218 C   0  0  0  0  0  0  0  0  0  0  0  0
   30.6278   27.5043   39.3147 C   0  0  0  0  0  0  0  0  0  0  0  0
   31.1497   27.9641   40.5305 C   0  0  0  0  0  0  0  0  0  0  0  0
   30.8808   27.3240   41.8627 C   0  0  0  0  0  0  0  0  0  0  0  0
   31.5262   28.0588   42.9721 N   0  0  0  0  0  0  0  0  0  0  0  0
   31.1064   27.8162   44.3360 C   0  0  0  0  0  0  0  0  0  0  0  0
   31.6491   28.4425   45.2868 O   0  0  0  0  0  0  0  0  0  0  0  0
   30.0093   26.8459   44.6618 C   0  0  0  0  0  0  0  0  0  0  0  0
   32.7705   28.8135   42.7140 C   0  0  0  0  0  0  0  0  0  0  0  0
   32.5889   29.7861   41.5440 C   0  0  0  0  0  0  0  0  0  0  0  0
   31.9661   29.0718   40.3945 C   0  0  0  0  0  0  0  0  0  0  0  0
   32.0264   29.5193   38.7778 S   0  0  0  0  0  0  0  0  0  0  0  0
  1  2  1  0
  2  3  2  0
  2  4  1  0
  4  5  2  0
  5  6  1  0
  6  7  2  0
  7  8  1  0
  8  9  2  0
  9 10  1  0
 10 11  2  0
 11 12  1  0
 12 13  2  0
 13 14  1  0
  8 15  1  0
 15 16  2  0
 16 17  1  0
 17 18  1  0
 18 19  1  0
 19 20  1  0
 20 21  2  0
 20 22  1  0
 19 23  1  0
 23 24  1  0
 24 25  1  0
 25 26  1  0
 13  4  1  0
 26 15  1  0
 12  7  1  0
 25 17  2  0
M  END
>  <AAScore>  (1) 
265.1592186221993

>  <RootName>  (1) 
./4ZLY/04_DeltaGEst/trajectory_01/rank_01/lead_0215

$$$$
