confid_15
     RDKit          3D

 27 30  0  0  0  0  0  0  0  0999 V2000
   24.5500   26.3900   36.2500 N   0  0  0  0  0  0  0  0  0  0  0  0
   25.6000   26.1300   35.4000 C   0  0  0  0  0  0  0  0  0  0  0  0
   25.4300   25.4300   34.4200 O   0  0  0  0  0  0  0  0  0  0  0  0
   26.9800   26.6300   35.7100 C   0  0  0  0  0  0  0  0  0  0  0  0
   27.3200   26.8200   36.9800 N   0  0  0  0  0  0  0  0  0  0  0  0
   28.4700   27.4000   37.3100 N   0  0  0  0  0  0  0  0  0  0  0  0
   29.4000   27.6300   36.3700 C   0  0  0  0  0  0  0  0  0  0  0  0
   30.6600   28.0500   36.8000 C   0  0  0  0  0  0  0  0  0  0  0  0
   31.5700   28.3600   35.7800 C   0  0  0  0  0  0  0  0  0  0  0  0
   31.3700   28.1000   34.4300 C   0  0  0  0  0  0  0  0  0  0  0  0
   30.1200   27.5900   34.0500 C   0  0  0  0  0  0  0  0  0  0  0  0
   29.1500   27.3400   35.0300 C   0  0  0  0  0  0  0  0  0  0  0  0
   27.8800   26.8900   34.6600 C   0  0  0  0  0  0  0  0  0  0  0  0
   27.4800   26.6100   33.3700 N   0  0  0  0  0  0  0  0  0  0  0  0
   23.2091   25.8906   36.0984 C   0  0  0  0  0  0  0  0  0  0  0  0
   22.2433   26.2856   37.0163 N   0  0  0  0  0  0  0  0  0  0  0  0
   20.9344   25.8696   36.9645 C   0  0  0  0  0  0  0  0  0  0  0  0
   20.6214   25.0203   35.9331 C   0  0  0  0  0  0  0  0  0  0  0  0
   19.7076   24.2152   35.1810 C   0  0  0  0  0  0  0  0  0  0  0  0
   20.6914   23.8020   34.2488 N   0  0  0  0  0  0  0  0  0  0  0  0
   20.7521   23.0064   33.0318 C   0  0  0  0  0  0  0  0  0  0  0  0
   20.0276   23.7077   31.8771 C   0  0  0  0  0  0  0  0  0  0  0  0
   20.7515   24.9832   31.4149 C   0  0  2  0  0  0  0  0  0  0  0  0
   20.6830   25.9542   32.3992 F   0  0  0  0  0  0  0  0  0  0  0  0
   20.1220   25.5343   30.1379 C   0  0  0  0  0  0  0  0  0  0  0  0
   21.6074   24.6347   35.0275 C   0  0  0  0  0  0  0  0  0  0  0  0
   22.8895   25.0349   35.0646 N   0  0  0  0  0  0  0  0  0  0  0  0
  1  2  1  0
  2  3  2  0
  2  4  1  0
  4  5  2  0
  5  6  1  0
  6  7  2  0
  7  8  1  0
  8  9  2  0
  9 10  1  0
 10 11  2  0
 11 12  1  0
 12 13  2  0
 13 14  1  0
  1 15  1  0
 15 16  2  0
 16 17  1  0
 17 18  2  0
 18 19  1  0
 19 20  1  0
 20 21  1  0
 21 22  1  0
 22 23  1  0
 23 24  1  0
 23 25  1  6
 20 26  1  0
 26 27  2  0
 13  4  1  0
 27 15  1  0
 12  7  1  0
 26 18  1  0
M  END
>  <AAScore>  (1) 
691.3970785953295

>  <RootName>  (1) 
./4ZLY/04_DeltaGEst/trajectory_01/rank_00/lead_0370

$$$$
