confid_1
     RDKit          3D

 31 35  0  0  0  0  0  0  0  0999 V2000
   25.3300   26.2600   34.7600 N   0  0  0  0  0  0  0  0  0  0  0  0
   26.1200   25.9200   33.6900 C   0  0  0  0  0  0  0  0  0  0  0  0
   25.6300   25.1100   32.9400 O   0  0  0  0  0  0  0  0  0  0  0  0
   27.5200   26.3800   33.4600 C   0  0  0  0  0  0  0  0  0  0  0  0
   28.1600   26.6300   34.6100 N   0  0  0  0  0  0  0  0  0  0  0  0
   29.4800   26.8500   34.5700 N   0  0  0  0  0  0  0  0  0  0  0  0
   30.1900   26.7800   33.4400 C   0  0  0  0  0  0  0  0  0  0  0  0
   31.5600   27.0500   33.5000 C   0  0  0  0  0  0  0  0  0  0  0  0
   32.2700   27.2400   32.3100 C   0  0  0  0  0  0  0  0  0  0  0  0
   31.6100   27.2500   31.0800 C   0  0  0  0  0  0  0  0  0  0  0  0
   30.2700   26.8700   31.0600 C   0  0  0  0  0  0  0  0  0  0  0  0
   29.5100   26.6900   32.2300 C   0  0  0  0  0  0  0  0  0  0  0  0
   28.1400   26.4100   32.2000 C   0  0  0  0  0  0  0  0  0  0  0  0
   27.4300   26.1300   31.0500 N   0  0  0  0  0  0  0  0  0  0  0  0
   24.0086   25.7420   35.0928 C   0  0  0  0  0  0  0  0  0  0  0  0
   23.3344   24.9907   34.0718 N   0  0  0  0  0  0  0  0  0  0  0  0
   22.0853   24.8234   33.7998 C   0  0  0  0  0  0  0  0  0  0  0  0
   21.7472   24.0701   32.5334 C   0  0  0  0  0  0  0  0  0  0  0  0
   20.2373   23.9861   32.2754 C   0  0  0  0  0  0  0  0  0  0  0  0
   19.5754   25.3218   32.6113 C   0  0  0  0  0  0  0  0  0  0  0  0
   19.8562   25.6640   34.0032 N   0  0  0  0  0  0  0  0  0  0  0  0
   21.0247   25.4987   34.5525 C   0  0  0  0  0  0  0  0  0  0  0  0
   21.1299   25.7106   35.9521 N   0  0  0  0  0  0  0  0  0  0  0  0
   22.1436   25.8169   36.7599 C   0  0  0  0  0  0  0  0  0  0  0  0
   21.7916   25.9833   38.1126 C   0  0  0  0  0  0  0  0  0  0  0  0
   22.7487   26.2412   39.1003 C   0  0  0  0  0  0  0  0  0  0  0  0
   24.0835   26.3161   38.7358 C   0  0  0  0  0  0  0  0  0  0  0  0
   24.4667   26.1443   37.4090 C   0  0  0  0  0  0  0  0  0  0  0  0
   23.5255   25.8937   36.3685 C   0  0  0  0  0  0  0  0  0  0  0  0
   22.4132   26.4328   40.4497 O   0  0  0  0  0  0  0  0  0  0  0  0
   21.0839   26.4472   40.9594 C   0  0  0  0  0  0  0  0  0  0  0  0
  1  2  1  0
  2  3  2  0
  2  4  1  0
  4  5  2  0
  5  6  1  0
  6  7  2  0
  7  8  1  0
  8  9  2  0
  9 10  1  0
 10 11  2  0
 11 12  1  0
 12 13  2  0
 13 14  1  0
  1 15  1  0
 15 16  1  0
 16 17  2  0
 17 18  1  0
 18 19  1  0
 19 20  1  0
 20 21  1  0
 21 22  2  0
 22 23  1  0
 23 24  2  0
 24 25  1  0
 25 26  2  0
 26 27  1  0
 27 28  2  0
 28 29  1  0
 26 30  1  0
 30 31  1  0
 13  4  1  0
 29 15  2  0
 12  7  1  0
 22 17  1  0
 29 24  1  0
M  END
>  <AAScore>  (1) 
1095.9829824877208

>  <RootName>  (1) 
./4ZLY/04_DeltaGEst/trajectory_03/rank_00/lead_0106

$$$$
