confid_11
     RDKit          3D

 27 30  0  0  0  0  0  0  0  0999 V2000
   24.5700   26.8800   35.5900 N   0  0  0  0  0  0  0  0  0  0  0  0
   25.5000   26.4000   34.6900 C   0  0  0  0  0  0  0  0  0  0  0  0
   25.1700   25.5200   33.9100 O   0  0  0  0  0  0  0  0  0  0  0  0
   26.8400   27.0200   34.7400 C   0  0  0  0  0  0  0  0  0  0  0  0
   27.3800   27.2800   35.9400 N   0  0  0  0  0  0  0  0  0  0  0  0
   28.6200   27.7400   36.0300 N   0  0  0  0  0  0  0  0  0  0  0  0
   29.3800   28.0000   34.9600 C   0  0  0  0  0  0  0  0  0  0  0  0
   30.6700   28.5000   35.1300 C   0  0  0  0  0  0  0  0  0  0  0  0
   31.5400   28.6100   34.0300 C   0  0  0  0  0  0  0  0  0  0  0  0
   31.0900   28.2200   32.7700 C   0  0  0  0  0  0  0  0  0  0  0  0
   29.8000   27.7000   32.6000 C   0  0  0  0  0  0  0  0  0  0  0  0
   28.9600   27.5500   33.7100 C   0  0  0  0  0  0  0  0  0  0  0  0
   27.6600   27.0300   33.5900 C   0  0  0  0  0  0  0  0  0  0  0  0
   27.1600   26.7400   32.3400 N   0  0  0  0  0  0  0  0  0  0  0  0
   23.3042   26.2611   35.8791 C   0  0  0  0  0  0  0  0  0  0  0  0
   22.9838   25.0297   35.3654 N   0  0  0  0  0  0  0  0  0  0  0  0
   21.7919   24.4303   35.6464 C   0  0  0  0  0  0  0  0  0  0  0  0
   20.9040   25.0995   36.4749 C   0  0  0  0  0  0  0  0  0  0  0  0
   19.6579   24.6915   36.8951 O   0  0  0  0  0  0  0  0  0  0  0  0
   19.0765   25.6931   37.7376 C   0  0  1  0  0  0  0  0  0  0  0  0
   18.7145   25.0911   39.0986 C   0  0  0  0  0  0  0  0  0  0  0  0
   18.1771   26.0677   39.9180 F   0  0  0  0  0  0  0  0  0  0  0  0
   19.8391   24.5564   39.7030 F   0  0  0  0  0  0  0  0  0  0  0  0
   17.7782   24.0880   38.9258 F   0  0  0  0  0  0  0  0  0  0  0  0
   20.1407   26.8305   37.8423 C   0  0  0  0  0  0  0  0  0  0  0  0
   21.2310   26.3130   36.9809 C   0  0  0  0  0  0  0  0  0  0  0  0
   22.4186   26.9037   36.6991 N   0  0  0  0  0  0  0  0  0  0  0  0
  1  2  1  0
  2  3  2  0
  2  4  1  0
  4  5  2  0
  5  6  1  0
  6  7  2  0
  7  8  1  0
  8  9  2  0
  9 10  1  0
 10 11  2  0
 11 12  1  0
 12 13  2  0
 13 14  1  0
  1 15  1  0
 15 16  2  0
 16 17  1  0
 17 18  2  0
 18 19  1  0
 19 20  1  0
 20 21  1  1
 21 22  1  0
 21 23  1  0
 21 24  1  0
 20 25  1  0
 25 26  1  0
 26 27  2  0
 13  4  1  0
 27 15  1  0
 12  7  1  0
 26 18  1  0
M  END
>  <AAScore>  (1) 
33416.03721557821

>  <RootName>  (1) 
./4ZLY/04_DeltaGEst/trajectory_05/rank_00/lead_0044

$$$$
