confid_15
     RDKit          3D

 27 30  0  0  0  0  0  0  0  0999 V2000
   24.6900   26.1200   35.5300 N   0  0  0  0  0  0  0  0  0  0  0  0
   25.6600   25.6700   34.6600 C   0  0  0  0  0  0  0  0  0  0  0  0
   25.2400   25.0100   33.7200 O   0  0  0  0  0  0  0  0  0  0  0  0
   27.0300   26.2200   34.8800 C   0  0  0  0  0  0  0  0  0  0  0  0
   27.3500   26.7300   36.0700 N   0  0  0  0  0  0  0  0  0  0  0  0
   28.5700   27.1800   36.3300 N   0  0  0  0  0  0  0  0  0  0  0  0
   29.5300   27.1100   35.3900 C   0  0  0  0  0  0  0  0  0  0  0  0
   30.8300   27.5700   35.6500 C   0  0  0  0  0  0  0  0  0  0  0  0
   31.8500   27.5400   34.6900 C   0  0  0  0  0  0  0  0  0  0  0  0
   31.5100   27.1200   33.4000 C   0  0  0  0  0  0  0  0  0  0  0  0
   30.2200   26.6300   33.1100 C   0  0  0  0  0  0  0  0  0  0  0  0
   29.2400   26.6600   34.1000 C   0  0  0  0  0  0  0  0  0  0  0  0
   27.9300   26.2600   33.8100 C   0  0  0  0  0  0  0  0  0  0  0  0
   27.5200   25.7100   32.6100 N   0  0  0  0  0  0  0  0  0  0  0  0
   31.1529   28.1466   36.9486 N   0  0  0  0  0  0  0  0  0  0  0  0
   32.0327   29.3318   37.0321 C   0  0  0  0  0  0  0  0  0  0  0  0
   31.4881   30.3784   38.0122 C   0  0  0  0  0  0  0  0  0  0  0  0
   29.9987   30.5469   37.8371 C   0  0  0  0  0  0  0  0  0  0  0  0
   29.1313   29.5303   38.2914 C   0  0  0  0  0  0  0  0  0  0  0  0
   27.7495   29.6933   38.0994 C   0  0  0  0  0  0  0  0  0  0  0  0
   27.2687   30.7760   37.4374 N   0  0  0  0  0  0  0  0  0  0  0  0
   28.0880   31.7350   36.9363 C   0  0  0  0  0  0  0  0  0  0  0  0
   29.4798   31.6375   37.1107 C   0  0  0  0  0  0  0  0  0  0  0  0
   30.3661   32.5777   36.5517 O   0  0  0  0  0  0  0  0  0  0  0  0
   29.9824   33.6312   35.6720 C   0  0  0  0  0  0  0  0  0  0  0  0
   29.6606   28.2902   38.9948 C   0  0  0  0  0  0  0  0  0  0  0  0
   30.7400   27.4906   38.2077 C   0  0  0  0  0  0  0  0  0  0  0  0
  1  2  1  0
  2  3  2  0
  2  4  1  0
  4  5  2  0
  5  6  1  0
  6  7  2  0
  7  8  1  0
  8  9  2  0
  9 10  1  0
 10 11  2  0
 11 12  1  0
 12 13  2  0
 13 14  1  0
  8 15  1  0
 15 16  1  0
 16 17  1  0
 17 18  1  0
 18 19  2  0
 19 20  1  0
 20 21  2  0
 21 22  1  0
 22 23  2  0
 23 24  1  0
 24 25  1  0
 19 26  1  0
 26 27  1  0
 13  4  1  0
 27 15  1  0
 12  7  1  0
 23 18  1  0
M  END
>  <AAScore>  (1) 
-7.017455210885973

>  <RootName>  (1) 
./4ZLY/04_DeltaGEst/trajectory_02/rank_01/lead_0250

$$$$
