confid_0
     RDKit          3D

 27 29  0  0  0  0  0  0  0  0999 V2000
   24.4800   26.1000   36.1300 N   0  0  0  0  0  0  0  0  0  0  0  0
   25.2500   26.2500   34.9900 C   0  0  0  0  0  0  0  0  0  0  0  0
   24.7400   25.7600   33.9900 O   0  0  0  0  0  0  0  0  0  0  0  0
   26.5900   26.8900   34.9600 C   0  0  0  0  0  0  0  0  0  0  0  0
   27.0600   27.2400   36.1600 N   0  0  0  0  0  0  0  0  0  0  0  0
   28.3000   27.7100   36.2400 N   0  0  0  0  0  0  0  0  0  0  0  0
   29.0500   27.9600   35.1500 C   0  0  0  0  0  0  0  0  0  0  0  0
   30.3400   28.4900   35.2600 C   0  0  0  0  0  0  0  0  0  0  0  0
   31.1100   28.8200   34.1400 C   0  0  0  0  0  0  0  0  0  0  0  0
   30.5200   28.6700   32.8800 C   0  0  0  0  0  0  0  0  0  0  0  0
   29.2900   28.0200   32.7700 C   0  0  0  0  0  0  0  0  0  0  0  0
   28.5200   27.7100   33.8900 C   0  0  0  0  0  0  0  0  0  0  0  0
   27.2700   27.0800   33.7600 C   0  0  0  0  0  0  0  0  0  0  0  0
   26.7500   26.8800   32.4900 N   0  0  0  0  0  0  0  0  0  0  0  0
   23.0905   25.7127   36.1342 C   0  0  0  0  0  0  0  0  0  0  0  0
   22.1827   26.3357   35.2589 C   0  0  0  0  0  0  0  0  0  0  0  0
   20.8244   25.9935   35.2763 C   0  0  0  0  0  0  0  0  0  0  0  0
   19.6912   26.7987   34.1880 S   0  0  0  0  0  6  0  0  0  0  0  0
   18.5832   25.8448   33.8362 O   0  0  0  0  0  0  0  0  0  0  0  0
   20.4044   27.1722   32.9174 O   0  0  0  0  0  0  0  0  0  0  0  0
   19.0122   28.2351   34.9143 N   0  0  0  0  0  0  0  0  0  0  0  0
   20.0842   29.1876   35.2289 C   0  0  0  0  0  0  0  0  0  0  0  0
   18.2773   27.8763   36.1342 C   0  0  0  0  0  0  0  0  0  0  0  0
   20.3679   25.0188   36.1708 C   0  0  0  0  0  0  0  0  0  0  0  0
   21.2577   24.3955   37.0462 C   0  0  0  0  0  0  0  0  0  0  0  0
   22.6206   24.7377   37.0436 C   0  0  0  0  0  0  0  0  0  0  0  0
   23.5603   24.0576   38.0020 C   0  0  0  0  0  0  0  0  0  0  0  0
  1  2  1  0
  2  3  2  0
  2  4  1  0
  4  5  2  0
  5  6  1  0
  6  7  2  0
  7  8  1  0
  8  9  2  0
  9 10  1  0
 10 11  2  0
 11 12  1  0
 12 13  2  0
 13 14  1  0
  1 15  1  0
 15 16  2  0
 16 17  1  0
 17 18  1  0
 18 19  2  0
 18 20  2  0
 18 21  1  0
 21 22  1  0
 21 23  1  0
 17 24  2  0
 24 25  1  0
 25 26  2  0
 26 27  1  0
 13  4  1  0
 26 15  1  0
 12  7  1  0
M  END
>  <AAScore>  (1) 
771.2334905976215

>  <RootName>  (1) 
./4ZLY/04_DeltaGEst/trajectory_00/rank_00/lead_0250

$$$$
