confid_14
     RDKit          3D

 28 31  0  0  0  0  0  0  0  0999 V2000
   25.3300   26.2600   34.7600 N   0  0  0  0  0  0  0  0  0  0  0  0
   26.1200   25.9200   33.6900 C   0  0  0  0  0  0  0  0  0  0  0  0
   25.6300   25.1100   32.9400 O   0  0  0  0  0  0  0  0  0  0  0  0
   27.5200   26.3800   33.4600 C   0  0  0  0  0  0  0  0  0  0  0  0
   28.1600   26.6300   34.6100 N   0  0  0  0  0  0  0  0  0  0  0  0
   29.4800   26.8500   34.5700 N   0  0  0  0  0  0  0  0  0  0  0  0
   30.1900   26.7800   33.4400 C   0  0  0  0  0  0  0  0  0  0  0  0
   31.5600   27.0500   33.5000 C   0  0  0  0  0  0  0  0  0  0  0  0
   32.2700   27.2400   32.3100 C   0  0  0  0  0  0  0  0  0  0  0  0
   31.6100   27.2500   31.0800 C   0  0  0  0  0  0  0  0  0  0  0  0
   30.2700   26.8700   31.0600 C   0  0  0  0  0  0  0  0  0  0  0  0
   29.5100   26.6900   32.2300 C   0  0  0  0  0  0  0  0  0  0  0  0
   28.1400   26.4100   32.2000 C   0  0  0  0  0  0  0  0  0  0  0  0
   27.4300   26.1300   31.0500 N   0  0  0  0  0  0  0  0  0  0  0  0
   24.2291   25.4878   35.2735 C   0  0  0  0  0  0  0  0  0  0  0  0
   23.1929   26.1336   35.8701 N   0  0  0  0  0  0  0  0  0  0  0  0
   22.1205   25.4807   36.3985 C   0  0  0  0  0  0  0  0  0  0  0  0
   21.1367   26.2853   37.1901 C   0  0  0  0  0  0  0  0  0  0  0  0
   21.7248   26.6203   38.4973 N   0  0  0  0  0  0  0  0  0  0  0  0
   20.8178   27.4726   39.2837 C   0  0  0  0  0  0  0  0  0  0  0  0
   22.1983   25.4389   39.2597 C   0  0  0  0  0  0  0  0  0  0  0  0
   21.0944   24.5882   39.8108 C   0  0  0  0  0  0  0  0  0  0  0  0
   20.3439   23.7379   39.1699 N   0  0  0  0  0  0  0  0  0  0  0  0
   20.1520   23.1894   37.8475 C   0  0  0  0  0  0  0  0  0  0  0  0
   20.8880   23.2841   36.7232 C   0  0  0  0  0  0  0  0  0  0  0  0
   22.0928   24.0700   36.3959 C   0  0  0  0  0  0  0  0  0  0  0  0
   23.1598   23.3878   35.7933 C   0  0  0  0  0  0  0  0  0  0  0  0
   24.2368   24.0867   35.2514 C   0  0  0  0  0  0  0  0  0  0  0  0
  1  2  1  0
  2  3  2  0
  2  4  1  0
  4  5  2  0
  5  6  1  0
  6  7  2  0
  7  8  1  0
  8  9  2  0
  9 10  1  0
 10 11  2  0
 11 12  1  0
 12 13  2  0
 13 14  1  0
  1 15  1  0
 15 16  2  0
 16 17  1  0
 17 18  1  0
 18 19  1  0
 19 20  1  0
 19 21  1  0
 21 22  1  0
 22 23  2  0
 23 24  1  0
 24 25  2  0
 25 26  1  0
 26 27  1  0
 27 28  2  0
 13  4  1  0
 28 15  1  0
 12  7  1  0
 26 17  2  0
M  END
>  <AAScore>  (1) 
6028.313489132321

>  <RootName>  (1) 
./4ZLY/04_DeltaGEst/trajectory_03/rank_00/lead_0229

$$$$
