confid_17
     RDKit          3D

 29 33  0  0  0  0  0  0  0  0999 V2000
   25.3300   26.2600   34.7600 N   0  0  0  0  0  0  0  0  0  0  0  0
   26.1200   25.9200   33.6900 C   0  0  0  0  0  0  0  0  0  0  0  0
   25.6300   25.1100   32.9400 O   0  0  0  0  0  0  0  0  0  0  0  0
   27.5200   26.3800   33.4600 C   0  0  0  0  0  0  0  0  0  0  0  0
   28.1600   26.6300   34.6100 N   0  0  0  0  0  0  0  0  0  0  0  0
   29.4800   26.8500   34.5700 N   0  0  0  0  0  0  0  0  0  0  0  0
   30.1900   26.7800   33.4400 C   0  0  0  0  0  0  0  0  0  0  0  0
   31.5600   27.0500   33.5000 C   0  0  0  0  0  0  0  0  0  0  0  0
   32.2700   27.2400   32.3100 C   0  0  0  0  0  0  0  0  0  0  0  0
   31.6100   27.2500   31.0800 C   0  0  0  0  0  0  0  0  0  0  0  0
   30.2700   26.8700   31.0600 C   0  0  0  0  0  0  0  0  0  0  0  0
   29.5100   26.6900   32.2300 C   0  0  0  0  0  0  0  0  0  0  0  0
   28.1400   26.4100   32.2000 C   0  0  0  0  0  0  0  0  0  0  0  0
   27.4300   26.1300   31.0500 N   0  0  0  0  0  0  0  0  0  0  0  0
   24.1647   25.5286   35.1839 C   0  0  0  0  0  0  0  0  0  0  0  0
   24.2488   24.2237   35.2197 N   0  0  0  0  0  0  0  0  0  0  0  0
   23.3662   23.1397   35.5603 C   0  0  0  0  0  0  0  0  0  0  0  0
   22.0474   23.1768   35.4152 C   0  0  0  0  0  0  0  0  0  0  0  0
   20.9821   22.2004   35.0008 C   0  0  0  0  0  0  0  0  0  0  0  0
   20.0189   23.1724   34.7472 O   0  0  0  0  0  0  0  0  0  0  0  0
   20.9017   24.1199   35.2512 C   0  0  2  0  0  0  0  0  0  0  0  0
   21.2350   25.2562   34.2872 C   0  0  0  0  0  0  0  0  0  0  0  0
   21.7553   26.3779   35.1406 C   0  0  0  0  0  0  0  0  0  0  0  0
   20.8468   27.3559   35.5791 C   0  0  0  0  0  0  0  0  0  0  0  0
   21.2186   28.2975   36.5423 C   0  0  0  0  0  0  0  0  0  0  0  0
   22.4941   28.2116   37.1044 C   0  0  0  0  0  0  0  0  0  0  0  0
   23.3644   27.2629   36.6753 N   0  0  0  0  0  0  0  0  0  0  0  0
   23.0432   26.3334   35.7319 C   0  0  0  0  0  0  0  0  0  0  0  0
   20.2408   29.3309   37.0220 C   0  0  0  0  0  0  0  0  0  0  0  0
  1  2  1  0
  2  3  2  0
  2  4  1  0
  4  5  2  0
  5  6  1  0
  6  7  2  0
  7  8  1  0
  8  9  2  0
  9 10  1  0
 10 11  2  0
 11 12  1  0
 12 13  2  0
 13 14  1  0
  1 15  1  0
 15 16  2  0
 16 17  1  0
 17 18  2  0
 18 19  1  0
 19 20  1  0
 20 21  1  0
 21 22  1  6
 22 23  1  0
 23 24  2  0
 24 25  1  0
 25 26  2  0
 26 27  1  0
 27 28  2  0
 25 29  1  0
 13  4  1  0
 28 15  1  0
 12  7  1  0
 21 18  1  0
 28 23  1  0
M  END
>  <AAScore>  (1) 
7027.3523247733765

>  <RootName>  (1) 
./4ZLY/04_DeltaGEst/trajectory_03/rank_00/lead_0237

$$$$
