confid_6
     RDKit          3D

 31 35  0  0  0  0  0  0  0  0999 V2000
   24.4800   26.1000   36.1300 N   0  0  0  0  0  0  0  0  0  0  0  0
   25.2500   26.2500   34.9900 C   0  0  0  0  0  0  0  0  0  0  0  0
   24.7400   25.7600   33.9900 O   0  0  0  0  0  0  0  0  0  0  0  0
   26.5900   26.8900   34.9600 C   0  0  0  0  0  0  0  0  0  0  0  0
   27.0600   27.2400   36.1600 N   0  0  0  0  0  0  0  0  0  0  0  0
   28.3000   27.7100   36.2400 N   0  0  0  0  0  0  0  0  0  0  0  0
   29.0500   27.9600   35.1500 C   0  0  0  0  0  0  0  0  0  0  0  0
   30.3400   28.4900   35.2600 C   0  0  0  0  0  0  0  0  0  0  0  0
   31.1100   28.8200   34.1400 C   0  0  0  0  0  0  0  0  0  0  0  0
   30.5200   28.6700   32.8800 C   0  0  0  0  0  0  0  0  0  0  0  0
   29.2900   28.0200   32.7700 C   0  0  0  0  0  0  0  0  0  0  0  0
   28.5200   27.7100   33.8900 C   0  0  0  0  0  0  0  0  0  0  0  0
   27.2700   27.0800   33.7600 C   0  0  0  0  0  0  0  0  0  0  0  0
   26.7500   26.8800   32.4900 N   0  0  0  0  0  0  0  0  0  0  0  0
   23.2425   25.3605   36.2009 C   0  0  0  0  0  0  0  0  0  0  0  0
   23.1146   24.1469   35.4504 N   0  0  0  0  0  0  0  0  0  0  0  0
   22.0804   23.3647   35.5096 C   0  0  0  0  0  0  0  0  0  0  0  0
   22.0871   22.1308   34.6321 C   0  0  0  0  0  0  0  0  0  0  0  0
   20.9821   22.1646   33.5646 C   0  0  0  0  0  0  0  0  0  0  0  0
   19.9729   21.2280   33.9014 O   0  0  0  0  0  0  0  0  0  0  0  0
   18.6727   21.7208   33.6356 C   0  0  0  0  0  0  0  0  0  0  0  0
   17.9582   22.0910   34.9420 C   0  0  0  0  0  0  0  0  0  0  0  0
   18.6378   23.2487   35.6920 C   0  0  0  0  0  0  0  0  0  0  0  0
   19.8341   22.7917   36.5570 C   0  0  0  0  0  0  0  0  0  0  0  0
   20.9821   23.7035   36.3947 N   0  0  0  0  0  0  0  0  0  0  0  0
   21.0390   24.9434   37.0894 N   0  0  0  0  0  0  0  0  0  0  0  0
   19.9454   25.4170   37.9128 C   0  0  0  0  0  0  0  0  0  0  0  0
   20.0216   26.5835   38.5599 C   0  0  0  0  0  0  0  0  0  0  0  0
   21.2155   27.4338   38.4502 C   0  0  0  0  0  0  0  0  0  0  0  0
   22.2572   27.0609   37.7090 C   0  0  0  0  0  0  0  0  0  0  0  0
   22.2247   25.7662   36.9849 C   0  0  0  0  0  0  0  0  0  0  0  0
  1  2  1  0
  2  3  2  0
  2  4  1  0
  4  5  2  0
  5  6  1  0
  6  7  2  0
  7  8  1  0
  8  9  2  0
  9 10  1  0
 10 11  2  0
 11 12  1  0
 12 13  2  0
 13 14  1  0
  1 15  1  0
 15 16  1  0
 16 17  2  0
 17 18  1  0
 18 19  1  0
 19 20  1  0
 20 21  1  0
 21 22  1  0
 22 23  1  0
 23 24  1  0
 24 25  1  0
 25 26  1  0
 26 27  1  0
 27 28  2  0
 28 29  1  0
 29 30  2  0
 30 31  1  0
 13  4  1  0
 31 15  2  0
 12  7  1  0
 25 17  1  0
 31 26  1  0
M  END
>  <AAScore>  (1) 
3737.5696876027982

>  <RootName>  (1) 
./4ZLY/04_DeltaGEst/trajectory_00/rank_01/lead_0265

$$$$
