confid_4
     RDKit          3D

 28 31  0  0  0  0  0  0  0  0999 V2000
   25.3300   26.2600   34.7600 N   0  0  0  0  0  0  0  0  0  0  0  0
   26.1200   25.9200   33.6900 C   0  0  0  0  0  0  0  0  0  0  0  0
   25.6300   25.1100   32.9400 O   0  0  0  0  0  0  0  0  0  0  0  0
   27.5200   26.3800   33.4600 C   0  0  0  0  0  0  0  0  0  0  0  0
   28.1600   26.6300   34.6100 N   0  0  0  0  0  0  0  0  0  0  0  0
   29.4800   26.8500   34.5700 N   0  0  0  0  0  0  0  0  0  0  0  0
   30.1900   26.7800   33.4400 C   0  0  0  0  0  0  0  0  0  0  0  0
   31.5600   27.0500   33.5000 C   0  0  0  0  0  0  0  0  0  0  0  0
   32.2700   27.2400   32.3100 C   0  0  0  0  0  0  0  0  0  0  0  0
   31.6100   27.2500   31.0800 C   0  0  0  0  0  0  0  0  0  0  0  0
   30.2700   26.8700   31.0600 C   0  0  0  0  0  0  0  0  0  0  0  0
   29.5100   26.6900   32.2300 C   0  0  0  0  0  0  0  0  0  0  0  0
   28.1400   26.4100   32.2000 C   0  0  0  0  0  0  0  0  0  0  0  0
   27.4300   26.1300   31.0500 N   0  0  0  0  0  0  0  0  0  0  0  0
   24.1947   25.4986   35.2232 C   0  0  0  0  0  0  0  0  0  0  0  0
   24.1697   24.1535   35.0261 N   0  0  0  0  0  0  0  0  0  0  0  0
   23.1705   23.3649   35.4888 C   0  0  0  0  0  0  0  0  0  0  0  0
   22.1165   23.9145   36.2274 C   0  0  0  0  0  0  0  0  0  0  0  0
   21.0816   22.9943   36.8394 C   0  0  0  0  0  0  0  0  0  0  0  0
   19.6553   23.3165   36.3729 C   0  0  0  0  0  0  0  0  0  0  0  0
   19.0593   24.4011   37.1856 N   0  0  0  0  0  0  0  0  0  0  0  0
   17.5941   24.3836   37.0374 C   0  0  0  0  0  0  0  0  0  0  0  0
   19.5781   25.7237   36.7845 C   0  0  0  0  0  0  0  0  0  0  0  0
   20.9963   25.8978   37.2362 C   0  0  0  0  0  0  0  0  0  0  0  0
   21.2460   26.5399   38.2918 O   0  0  0  0  0  0  0  0  0  0  0  0
   22.1012   25.3069   36.4561 C   0  0  0  0  0  0  0  0  0  0  0  0
   23.1355   26.1197   35.9254 C   0  0  0  0  0  0  0  0  0  0  0  0
   23.1160   27.6224   36.0981 C   0  0  0  0  0  0  0  0  0  0  0  0
  1  2  1  0
  2  3  2  0
  2  4  1  0
  4  5  2  0
  5  6  1  0
  6  7  2  0
  7  8  1  0
  8  9  2  0
  9 10  1  0
 10 11  2  0
 11 12  1  0
 12 13  2  0
 13 14  1  0
  1 15  1  0
 15 16  2  0
 16 17  1  0
 17 18  2  0
 18 19  1  0
 19 20  1  0
 20 21  1  0
 21 22  1  0
 21 23  1  0
 23 24  1  0
 24 25  2  0
 24 26  1  0
 26 27  2  0
 27 28  1  0
 13  4  1  0
 27 15  1  0
 12  7  1  0
 26 18  1  0
M  END
>  <AAScore>  (1) 
8530.393203487243

>  <RootName>  (1) 
./4ZLY/04_DeltaGEst/trajectory_03/rank_00/lead_0459

$$$$
