confid_7
     RDKit          3D

 26 29  0  0  0  0  0  0  0  0999 V2000
   24.4800   26.1000   36.1300 N   0  0  0  0  0  0  0  0  0  0  0  0
   25.2500   26.2500   34.9900 C   0  0  0  0  0  0  0  0  0  0  0  0
   24.7400   25.7600   33.9900 O   0  0  0  0  0  0  0  0  0  0  0  0
   26.5900   26.8900   34.9600 C   0  0  0  0  0  0  0  0  0  0  0  0
   27.0600   27.2400   36.1600 N   0  0  0  0  0  0  0  0  0  0  0  0
   28.3000   27.7100   36.2400 N   0  0  0  0  0  0  0  0  0  0  0  0
   29.0500   27.9600   35.1500 C   0  0  0  0  0  0  0  0  0  0  0  0
   30.3400   28.4900   35.2600 C   0  0  0  0  0  0  0  0  0  0  0  0
   31.1100   28.8200   34.1400 C   0  0  0  0  0  0  0  0  0  0  0  0
   30.5200   28.6700   32.8800 C   0  0  0  0  0  0  0  0  0  0  0  0
   29.2900   28.0200   32.7700 C   0  0  0  0  0  0  0  0  0  0  0  0
   28.5200   27.7100   33.8900 C   0  0  0  0  0  0  0  0  0  0  0  0
   27.2700   27.0800   33.7600 C   0  0  0  0  0  0  0  0  0  0  0  0
   26.7500   26.8800   32.4900 N   0  0  0  0  0  0  0  0  0  0  0  0
   23.4701   25.0951   36.3358 C   0  0  0  0  0  0  0  0  0  0  0  0
   22.6708   25.1678   37.4351 N   0  0  0  0  0  0  0  0  0  0  0  0
   21.7232   24.2263   37.6814 C   0  0  0  0  0  0  0  0  0  0  0  0
   21.5641   23.1568   36.8028 C   0  0  0  0  0  0  0  0  0  0  0  0
   20.5885   22.1805   37.0328 O   0  0  0  0  0  0  0  0  0  0  0  0
   20.5181   20.9872   36.2507 C   0  0  0  0  0  0  0  0  0  0  0  0
   20.8822   21.2786   34.7888 C   0  0  0  0  0  0  0  0  0  0  0  0
   19.9320   22.1224   34.2375 F   0  0  0  0  0  0  0  0  0  0  0  0
   20.8955   20.0951   34.0715 F   0  0  0  0  0  0  0  0  0  0  0  0
   22.2678   21.9411   34.7103 C   0  0  0  0  0  0  0  0  0  0  0  0
   22.3850   23.0948   35.6688 C   0  0  0  0  0  0  0  0  0  0  0  0
   23.3274   24.0532   35.4694 N   0  0  0  0  0  0  0  0  0  0  0  0
  1  2  1  0
  2  3  2  0
  2  4  1  0
  4  5  2  0
  5  6  1  0
  6  7  2  0
  7  8  1  0
  8  9  2  0
  9 10  1  0
 10 11  2  0
 11 12  1  0
 12 13  2  0
 13 14  1  0
  1 15  1  0
 15 16  2  0
 16 17  1  0
 17 18  2  0
 18 19  1  0
 19 20  1  0
 20 21  1  0
 21 22  1  0
 21 23  1  0
 21 24  1  0
 24 25  1  0
 25 26  2  0
 13  4  1  0
 26 15  1  0
 12  7  1  0
 25 18  1  0
M  END
>  <AAScore>  (1) 
278.83477594907345

>  <RootName>  (1) 
./4ZLY/04_DeltaGEst/trajectory_00/rank_01/lead_0161

$$$$
