confid_6
     RDKit          3D

 27 30  0  0  0  0  0  0  0  0999 V2000
   24.5700   26.8800   35.5900 N   0  0  0  0  0  0  0  0  0  0  0  0
   25.5000   26.4000   34.6900 C   0  0  0  0  0  0  0  0  0  0  0  0
   25.1700   25.5200   33.9100 O   0  0  0  0  0  0  0  0  0  0  0  0
   26.8400   27.0200   34.7400 C   0  0  0  0  0  0  0  0  0  0  0  0
   27.3800   27.2800   35.9400 N   0  0  0  0  0  0  0  0  0  0  0  0
   28.6200   27.7400   36.0300 N   0  0  0  0  0  0  0  0  0  0  0  0
   29.3800   28.0000   34.9600 C   0  0  0  0  0  0  0  0  0  0  0  0
   30.6700   28.5000   35.1300 C   0  0  0  0  0  0  0  0  0  0  0  0
   31.5400   28.6100   34.0300 C   0  0  0  0  0  0  0  0  0  0  0  0
   31.0900   28.2200   32.7700 C   0  0  0  0  0  0  0  0  0  0  0  0
   29.8000   27.7000   32.6000 C   0  0  0  0  0  0  0  0  0  0  0  0
   28.9600   27.5500   33.7100 C   0  0  0  0  0  0  0  0  0  0  0  0
   27.6600   27.0300   33.5900 C   0  0  0  0  0  0  0  0  0  0  0  0
   27.1600   26.7400   32.3400 N   0  0  0  0  0  0  0  0  0  0  0  0
   23.4066   26.1582   36.0309 C   0  0  0  0  0  0  0  0  0  0  0  0
   22.3125   26.8546   36.4258 N   0  0  0  0  0  0  0  0  0  0  0  0
   21.1930   26.2430   36.8862 C   0  0  0  0  0  0  0  0  0  0  0  0
   21.1255   24.8412   36.9954 C   0  0  0  0  0  0  0  0  0  0  0  0
   19.8221   24.2463   37.4902 C   0  0  0  0  0  0  0  0  0  0  0  0
   19.0339   23.5402   36.3807 C   0  0  0  0  0  0  0  0  0  0  0  0
   19.8620   22.5893   35.6107 N   0  0  0  0  0  0  0  0  0  0  0  0
   19.1117   22.1357   34.4272 C   0  0  0  0  0  0  0  0  0  0  0  0
   20.2731   21.4261   36.4276 C   0  0  0  0  0  0  0  0  0  0  0  0
   21.5293   21.7250   37.2605 C   0  0  0  0  0  0  0  0  0  0  0  0
   22.3826   22.6760   36.6290 O   0  0  0  0  0  0  0  0  0  0  0  0
   22.2695   24.0815   36.6026 C   0  0  0  0  0  0  0  0  0  0  0  0
   23.3975   24.7600   36.1262 C   0  0  0  0  0  0  0  0  0  0  0  0
  1  2  1  0
  2  3  2  0
  2  4  1  0
  4  5  2  0
  5  6  1  0
  6  7  2  0
  7  8  1  0
  8  9  2  0
  9 10  1  0
 10 11  2  0
 11 12  1  0
 12 13  2  0
 13 14  1  0
  1 15  1  0
 15 16  2  0
 16 17  1  0
 17 18  2  0
 18 19  1  0
 19 20  1  0
 20 21  1  0
 21 22  1  0
 21 23  1  0
 23 24  1  0
 24 25  1  0
 25 26  1  0
 26 27  2  0
 13  4  1  0
 27 15  1  0
 12  7  1  0
 26 18  1  0
M  END
>  <AAScore>  (1) 
1445.0291779325246

>  <RootName>  (1) 
./4ZLY/04_DeltaGEst/trajectory_05/rank_00/lead_0259

$$$$
