confid_17
     RDKit          3D

 29 32  0  0  0  0  0  0  0  0999 V2000
   24.5500   26.3900   36.2500 N   0  0  0  0  0  0  0  0  0  0  0  0
   25.6000   26.1300   35.4000 C   0  0  0  0  0  0  0  0  0  0  0  0
   25.4300   25.4300   34.4200 O   0  0  0  0  0  0  0  0  0  0  0  0
   26.9800   26.6300   35.7100 C   0  0  0  0  0  0  0  0  0  0  0  0
   27.3200   26.8200   36.9800 N   0  0  0  0  0  0  0  0  0  0  0  0
   28.4700   27.4000   37.3100 N   0  0  0  0  0  0  0  0  0  0  0  0
   29.4000   27.6300   36.3700 C   0  0  0  0  0  0  0  0  0  0  0  0
   30.6600   28.0500   36.8000 C   0  0  0  0  0  0  0  0  0  0  0  0
   31.5700   28.3600   35.7800 C   0  0  0  0  0  0  0  0  0  0  0  0
   31.3700   28.1000   34.4300 C   0  0  0  0  0  0  0  0  0  0  0  0
   30.1200   27.5900   34.0500 C   0  0  0  0  0  0  0  0  0  0  0  0
   29.1500   27.3400   35.0300 C   0  0  0  0  0  0  0  0  0  0  0  0
   27.8800   26.8900   34.6600 C   0  0  0  0  0  0  0  0  0  0  0  0
   27.4800   26.6100   33.3700 N   0  0  0  0  0  0  0  0  0  0  0  0
   30.9735   28.2810   38.1864 N   0  0  0  0  0  0  0  0  0  0  0  0
   31.3236   27.1160   39.0121 C   0  0  0  0  0  0  0  0  0  0  0  0
   30.9901   27.3038   40.5012 C   0  0  0  0  0  0  0  0  0  0  0  0
   29.5391   27.7612   40.7532 C   0  0  0  0  0  0  0  0  0  0  0  0
   29.5122   29.0859   41.3925 N   0  0  0  0  0  0  0  0  0  0  0  0
   29.1723   29.1749   42.8202 C   0  0  0  0  0  0  0  0  0  0  0  0
   30.3654   28.8244   43.6600 C   0  0  0  0  0  0  0  0  0  0  0  0
   31.3217   29.7659   44.0709 C   0  0  0  0  0  0  0  0  0  0  0  0
   32.3734   29.2117   44.7864 C   0  0  0  0  0  0  0  0  0  0  0  0
   32.1157   27.5548   44.8935 S   0  0  0  0  0  0  0  0  0  0  0  0
   30.6691   27.5214   44.0404 C   0  0  0  0  0  0  0  0  0  0  0  0
   29.9338   30.2721   40.6796 C   0  0  0  0  0  0  0  0  0  0  0  0
   30.2641   31.3047   41.3243 O   0  0  0  0  0  0  0  0  0  0  0  0
   30.0012   30.3244   39.1757 C   0  0  0  0  0  0  0  0  0  0  0  0
   31.2691   29.6518   38.6290 C   0  0  0  0  0  0  0  0  0  0  0  0
  1  2  1  0
  2  3  2  0
  2  4  1  0
  4  5  2  0
  5  6  1  0
  6  7  2  0
  7  8  1  0
  8  9  2  0
  9 10  1  0
 10 11  2  0
 11 12  1  0
 12 13  2  0
 13 14  1  0
  8 15  1  0
 15 16  1  0
 16 17  1  0
 17 18  1  0
 18 19  1  0
 19 20  1  0
 20 21  1  0
 21 22  1  0
 22 23  2  0
 23 24  1  0
 24 25  1  0
 19 26  1  0
 26 27  2  0
 26 28  1  0
 28 29  1  0
 13  4  1  0
 29 15  1  0
 12  7  1  0
 25 21  2  0
M  END
>  <AAScore>  (1) 
163.80007704819383

>  <RootName>  (1) 
./4ZLY/04_DeltaGEst/trajectory_01/rank_01/lead_0276

$$$$
