confid_13
     RDKit          3D

 29 32  0  0  0  0  0  0  0  0999 V2000
   24.4800   26.1000   36.1300 N   0  0  0  0  0  0  0  0  0  0  0  0
   25.2500   26.2500   34.9900 C   0  0  0  0  0  0  0  0  0  0  0  0
   24.7400   25.7600   33.9900 O   0  0  0  0  0  0  0  0  0  0  0  0
   26.5900   26.8900   34.9600 C   0  0  0  0  0  0  0  0  0  0  0  0
   27.0600   27.2400   36.1600 N   0  0  0  0  0  0  0  0  0  0  0  0
   28.3000   27.7100   36.2400 N   0  0  0  0  0  0  0  0  0  0  0  0
   29.0500   27.9600   35.1500 C   0  0  0  0  0  0  0  0  0  0  0  0
   30.3400   28.4900   35.2600 C   0  0  0  0  0  0  0  0  0  0  0  0
   31.1100   28.8200   34.1400 C   0  0  0  0  0  0  0  0  0  0  0  0
   30.5200   28.6700   32.8800 C   0  0  0  0  0  0  0  0  0  0  0  0
   29.2900   28.0200   32.7700 C   0  0  0  0  0  0  0  0  0  0  0  0
   28.5200   27.7100   33.8900 C   0  0  0  0  0  0  0  0  0  0  0  0
   27.2700   27.0800   33.7600 C   0  0  0  0  0  0  0  0  0  0  0  0
   26.7500   26.8800   32.4900 N   0  0  0  0  0  0  0  0  0  0  0  0
   23.0395   26.1399   36.1740 C   0  0  0  0  0  0  0  0  0  0  0  0
   22.4772   25.5068   37.1781 N   0  0  0  0  0  0  0  0  0  0  0  0
   21.1297   25.2731   37.6360 C   0  0  0  0  0  0  0  0  0  0  0  0
   20.0895   24.9074   36.8644 C   0  0  0  0  0  0  0  0  0  0  0  0
   20.1760   25.0155   35.3950 C   0  0  0  0  0  0  0  0  0  0  0  0
   19.8212   26.4100   35.1717 N   0  0  0  0  0  0  0  0  0  0  0  0
   18.4363   26.7904   35.5512 C   0  0  0  0  0  0  0  0  0  0  0  0
   17.7651   25.7507   36.5034 C   0  0  0  0  0  0  0  0  0  0  0  0
   18.7499   25.0662   37.3771 N   0  0  0  0  0  0  0  0  0  0  0  0
   18.3455   24.4374   38.6485 C   0  0  0  0  0  0  0  0  0  0  0  0
   17.1803   23.4643   38.4356 C   0  0  0  0  0  0  0  0  0  0  0  0
   17.9975   25.5016   39.6944 C   0  0  0  0  0  0  0  0  0  0  0  0
   20.8912   27.3691   35.3335 C   0  0  0  0  0  0  0  0  0  0  0  0
   20.6383   28.5689   35.6276 O   0  0  0  0  0  0  0  0  0  0  0  0
   22.3226   26.9725   35.1008 C   0  0  0  0  0  0  0  0  0  0  0  0
  1  2  1  0
  2  3  2  0
  2  4  1  0
  4  5  2  0
  5  6  1  0
  6  7  2  0
  7  8  1  0
  8  9  2  0
  9 10  1  0
 10 11  2  0
 11 12  1  0
 12 13  2  0
 13 14  1  0
  1 15  1  0
 15 16  2  0
 16 17  1  0
 17 18  2  0
 18 19  1  0
 19 20  1  0
 20 21  1  0
 21 22  1  0
 22 23  1  0
 23 24  1  0
 24 25  1  0
 24 26  1  0
 20 27  1  0
 27 28  2  0
 27 29  1  0
 13  4  1  0
 29 15  1  0
 12  7  1  0
 23 18  1  0
M  END
>  <AAScore>  (1) 
1279.6830146678994

>  <RootName>  (1) 
./4ZLY/04_DeltaGEst/trajectory_00/rank_01/lead_0206

$$$$
