confid_14
     RDKit          3D

 28 31  0  0  0  0  0  0  0  0999 V2000
   24.5500   26.3900   36.2500 N   0  0  0  0  0  0  0  0  0  0  0  0
   25.6000   26.1300   35.4000 C   0  0  0  0  0  0  0  0  0  0  0  0
   25.4300   25.4300   34.4200 O   0  0  0  0  0  0  0  0  0  0  0  0
   26.9800   26.6300   35.7100 C   0  0  0  0  0  0  0  0  0  0  0  0
   27.3200   26.8200   36.9800 N   0  0  0  0  0  0  0  0  0  0  0  0
   28.4700   27.4000   37.3100 N   0  0  0  0  0  0  0  0  0  0  0  0
   29.4000   27.6300   36.3700 C   0  0  0  0  0  0  0  0  0  0  0  0
   30.6600   28.0500   36.8000 C   0  0  0  0  0  0  0  0  0  0  0  0
   31.5700   28.3600   35.7800 C   0  0  0  0  0  0  0  0  0  0  0  0
   31.3700   28.1000   34.4300 C   0  0  0  0  0  0  0  0  0  0  0  0
   30.1200   27.5900   34.0500 C   0  0  0  0  0  0  0  0  0  0  0  0
   29.1500   27.3400   35.0300 C   0  0  0  0  0  0  0  0  0  0  0  0
   27.8800   26.8900   34.6600 C   0  0  0  0  0  0  0  0  0  0  0  0
   27.4800   26.6100   33.3700 N   0  0  0  0  0  0  0  0  0  0  0  0
   31.0040   28.2817   38.2264 C   0  0  0  0  0  0  0  0  0  0  0  0
   30.8271   27.2684   39.1685 C   0  0  0  0  0  0  0  0  0  0  0  0
   31.1499   27.4514   40.5254 C   0  0  0  0  0  0  0  0  0  0  0  0
   30.8321   26.2532   41.4172 C   0  0  0  0  0  0  0  0  0  0  0  0
   31.5739   26.1537   42.7493 C   0  0  0  0  0  0  0  0  0  0  0  0
   30.9914   27.0953   43.7061 N   0  0  0  0  0  0  0  0  0  0  0  0
   31.0321   28.4949   43.4050 C   0  0  0  0  0  0  0  0  0  0  0  0
   30.2435   29.2930   43.9819 O   0  0  0  0  0  0  0  0  0  0  0  0
   32.0178   29.0190   42.4080 C   0  0  0  0  0  0  0  0  0  0  0  0
   31.6300   28.7338   40.9602 C   0  0  0  0  0  0  0  0  0  0  0  0
   31.8646   29.7408   39.9744 C   0  0  0  0  0  0  0  0  0  0  0  0
   32.4579   31.0871   40.3178 C   0  0  0  0  0  0  0  0  0  0  0  0
   31.5337   29.5043   38.6329 C   0  0  0  0  0  0  0  0  0  0  0  0
   30.2935   26.6260   44.9062 C   0  0  0  0  0  0  0  0  0  0  0  0
  1  2  1  0
  2  3  2  0
  2  4  1  0
  4  5  2  0
  5  6  1  0
  6  7  2  0
  7  8  1  0
  8  9  2  0
  9 10  1  0
 10 11  2  0
 11 12  1  0
 12 13  2  0
 13 14  1  0
  8 15  1  0
 15 16  2  0
 16 17  1  0
 17 18  1  0
 18 19  1  0
 19 20  1  0
 20 21  1  0
 21 22  2  0
 21 23  1  0
 23 24  1  0
 24 25  1  0
 25 26  1  0
 25 27  2  0
 20 28  1  0
 13  4  1  0
 27 15  1  0
 12  7  1  0
 24 17  2  0
M  END
>  <AAScore>  (1) 
51.87529320467671

>  <RootName>  (1) 
./4ZLY/04_DeltaGEst/trajectory_01/rank_01/lead_0405

$$$$
