confid_3
     RDKit          3D

 29 33  0  0  0  0  0  0  0  0999 V2000
   24.4800   26.1000   36.1300 N   0  0  0  0  0  0  0  0  0  0  0  0
   25.2500   26.2500   34.9900 C   0  0  0  0  0  0  0  0  0  0  0  0
   24.7400   25.7600   33.9900 O   0  0  0  0  0  0  0  0  0  0  0  0
   26.5900   26.8900   34.9600 C   0  0  0  0  0  0  0  0  0  0  0  0
   27.0600   27.2400   36.1600 N   0  0  0  0  0  0  0  0  0  0  0  0
   28.3000   27.7100   36.2400 N   0  0  0  0  0  0  0  0  0  0  0  0
   29.0500   27.9600   35.1500 C   0  0  0  0  0  0  0  0  0  0  0  0
   30.3400   28.4900   35.2600 C   0  0  0  0  0  0  0  0  0  0  0  0
   31.1100   28.8200   34.1400 C   0  0  0  0  0  0  0  0  0  0  0  0
   30.5200   28.6700   32.8800 C   0  0  0  0  0  0  0  0  0  0  0  0
   29.2900   28.0200   32.7700 C   0  0  0  0  0  0  0  0  0  0  0  0
   28.5200   27.7100   33.8900 C   0  0  0  0  0  0  0  0  0  0  0  0
   27.2700   27.0800   33.7600 C   0  0  0  0  0  0  0  0  0  0  0  0
   26.7500   26.8800   32.4900 N   0  0  0  0  0  0  0  0  0  0  0  0
   23.4890   25.0713   36.3328 C   0  0  0  0  0  0  0  0  0  0  0  0
   23.6110   23.9625   35.6495 N   0  0  0  0  0  0  0  0  0  0  0  0
   22.8642   22.7415   35.5191 C   0  0  0  0  0  0  0  0  0  0  0  0
   21.5415   22.6835   35.5973 C   0  0  0  0  0  0  0  0  0  0  0  0
   20.4520   22.0222   34.8009 C   0  0  0  0  0  0  0  0  0  0  0  0
   19.4327   22.8344   35.2895 O   0  0  0  0  0  0  0  0  0  0  0  0
   20.3577   23.3948   36.1623 C   0  0  2  0  0  0  0  0  0  0  0  0
   20.4976   24.9104   36.0628 C   0  0  0  0  0  0  0  0  0  0  0  0
   21.1971   25.3455   37.3259 C   0  0  0  0  0  0  0  0  0  0  0  0
   22.5424   25.2741   37.4626 C   0  0  0  0  0  0  0  0  0  0  0  0
   23.1305   25.4991   38.7151 O   0  0  0  0  0  0  0  0  0  0  0  0
   23.1605   26.7803   39.3459 C   0  0  0  0  0  0  0  0  0  0  0  0
   21.9084   27.0246   40.1792 C   0  0  0  0  0  0  0  0  0  0  0  0
   20.4530   27.2976   39.1148 S   0  0  0  0  0  0  0  0  0  0  0  0
   20.3285   25.5721   38.5426 C   0  0  0  0  0  0  0  0  0  0  0  0
  1  2  1  0
  2  3  2  0
  2  4  1  0
  4  5  2  0
  5  6  1  0
  6  7  2  0
  7  8  1  0
  8  9  2  0
  9 10  1  0
 10 11  2  0
 11 12  1  0
 12 13  2  0
 13 14  1  0
  1 15  1  0
 15 16  2  0
 16 17  1  0
 17 18  2  0
 18 19  1  0
 19 20  1  0
 20 21  1  0
 21 22  1  6
 22 23  1  0
 23 24  2  0
 24 25  1  0
 25 26  1  0
 26 27  1  0
 27 28  1  0
 28 29  1  0
 13  4  1  0
 24 15  1  0
 12  7  1  0
 21 18  1  0
 29 23  1  0
M  END
>  <AAScore>  (1) 
2672.5755141199475

>  <RootName>  (1) 
./4ZLY/04_DeltaGEst/trajectory_00/rank_01/lead_0271

$$$$
