confid_18
     RDKit          3D

 27 30  0  0  0  0  0  0  0  0999 V2000
   24.6900   26.1200   35.5300 N   0  0  0  0  0  0  0  0  0  0  0  0
   25.6600   25.6700   34.6600 C   0  0  0  0  0  0  0  0  0  0  0  0
   25.2400   25.0100   33.7200 O   0  0  0  0  0  0  0  0  0  0  0  0
   27.0300   26.2200   34.8800 C   0  0  0  0  0  0  0  0  0  0  0  0
   27.3500   26.7300   36.0700 N   0  0  0  0  0  0  0  0  0  0  0  0
   28.5700   27.1800   36.3300 N   0  0  0  0  0  0  0  0  0  0  0  0
   29.5300   27.1100   35.3900 C   0  0  0  0  0  0  0  0  0  0  0  0
   30.8300   27.5700   35.6500 C   0  0  0  0  0  0  0  0  0  0  0  0
   31.8500   27.5400   34.6900 C   0  0  0  0  0  0  0  0  0  0  0  0
   31.5100   27.1200   33.4000 C   0  0  0  0  0  0  0  0  0  0  0  0
   30.2200   26.6300   33.1100 C   0  0  0  0  0  0  0  0  0  0  0  0
   29.2400   26.6600   34.1000 C   0  0  0  0  0  0  0  0  0  0  0  0
   27.9300   26.2600   33.8100 C   0  0  0  0  0  0  0  0  0  0  0  0
   27.5200   25.7100   32.6100 N   0  0  0  0  0  0  0  0  0  0  0  0
   31.1367   28.0682   36.9617 N   0  0  0  0  0  0  0  0  0  0  0  0
   32.1447   27.3814   37.7779 C   0  0  0  0  0  0  0  0  0  0  0  0
   31.8500   27.5206   39.2700 C   0  0  0  0  0  0  0  0  0  0  0  0
   30.4185   27.3377   39.5188 N   0  0  0  0  0  0  0  0  0  0  0  0
   29.5371   28.4775   39.4779 C   0  0  0  0  0  0  0  0  0  0  0  0
   28.5512   28.6177   40.4717 C   0  0  0  0  0  0  0  0  0  0  0  0
   27.7282   29.7433   40.5058 C   0  0  0  0  0  0  0  0  0  0  0  0
   27.8840   30.7499   39.5561 C   0  0  0  0  0  0  0  0  0  0  0  0
   28.8493   30.6259   38.5547 C   0  0  0  0  0  0  0  0  0  0  0  0
   29.6795   29.4897   38.4898 C   0  0  0  0  0  0  0  0  0  0  0  0
   30.6181   29.3511   37.3430 C   0  0  0  0  0  0  0  0  0  0  0  0
   30.8980   30.3566   36.6343 O   0  0  0  0  0  0  0  0  0  0  0  0
   29.8673   25.9867   39.6561 C   0  0  0  0  0  0  0  0  0  0  0  0
  1  2  1  0
  2  3  2  0
  2  4  1  0
  4  5  2  0
  5  6  1  0
  6  7  2  0
  7  8  1  0
  8  9  2  0
  9 10  1  0
 10 11  2  0
 11 12  1  0
 12 13  2  0
 13 14  1  0
  8 15  1  0
 15 16  1  0
 16 17  1  0
 17 18  1  0
 18 19  1  0
 19 20  2  0
 20 21  1  0
 21 22  2  0
 22 23  1  0
 23 24  2  0
 24 25  1  0
 25 26  2  0
 18 27  1  0
 13  4  1  0
 25 15  1  0
 12  7  1  0
 24 19  1  0
M  END
>  <AAScore>  (1) 
-0.9764206094954884

>  <RootName>  (1) 
./4ZLY/04_DeltaGEst/trajectory_02/rank_01/lead_0431

$$$$
