confid_0
     RDKit          3D

 28 31  0  0  0  0  0  0  0  0999 V2000
   24.6900   26.1200   35.5300 N   0  0  0  0  0  0  0  0  0  0  0  0
   25.6600   25.6700   34.6600 C   0  0  0  0  0  0  0  0  0  0  0  0
   25.2400   25.0100   33.7200 O   0  0  0  0  0  0  0  0  0  0  0  0
   27.0300   26.2200   34.8800 C   0  0  0  0  0  0  0  0  0  0  0  0
   27.3500   26.7300   36.0700 N   0  0  0  0  0  0  0  0  0  0  0  0
   28.5700   27.1800   36.3300 N   0  0  0  0  0  0  0  0  0  0  0  0
   29.5300   27.1100   35.3900 C   0  0  0  0  0  0  0  0  0  0  0  0
   30.8300   27.5700   35.6500 C   0  0  0  0  0  0  0  0  0  0  0  0
   31.8500   27.5400   34.6900 C   0  0  0  0  0  0  0  0  0  0  0  0
   31.5100   27.1200   33.4000 C   0  0  0  0  0  0  0  0  0  0  0  0
   30.2200   26.6300   33.1100 C   0  0  0  0  0  0  0  0  0  0  0  0
   29.2400   26.6600   34.1000 C   0  0  0  0  0  0  0  0  0  0  0  0
   27.9300   26.2600   33.8100 C   0  0  0  0  0  0  0  0  0  0  0  0
   27.5200   25.7100   32.6100 N   0  0  0  0  0  0  0  0  0  0  0  0
   31.1816   28.0675   37.0025 C   0  0  0  0  0  0  0  0  0  0  0  0
   31.0227   27.2260   38.1263 C   0  0  0  0  0  0  0  0  0  0  0  0
   31.3691   27.7127   39.3861 C   0  0  0  0  0  0  0  0  0  0  0  0
   31.2846   27.0037   40.7075 C   0  0  0  0  0  0  0  0  0  0  0  0
   31.7809   28.0033   41.6626 N   0  0  0  0  0  0  0  0  0  0  0  0
   31.8999   27.8135   43.0817 C   0  0  0  0  0  0  0  0  0  0  0  0
   32.3404   28.7438   43.8093 O   0  0  0  0  0  0  0  0  0  0  0  0
   31.5047   26.5159   43.7137 C   0  0  0  0  0  0  0  0  0  0  0  0
   32.1215   29.1860   40.9403 C   0  0  0  0  0  0  0  0  0  0  0  0
   32.5798   30.2376   41.4612 O   0  0  0  0  0  0  0  0  0  0  0  0
   31.8615   28.9885   39.5373 C   0  0  0  0  0  0  0  0  0  0  0  0
   32.0366   29.8468   38.4553 C   0  0  0  0  0  0  0  0  0  0  0  0
   31.6941   29.3795   37.1757 C   0  0  0  0  0  0  0  0  0  0  0  0
   31.8414   30.2072   36.1101 F   0  0  0  0  0  0  0  0  0  0  0  0
  1  2  1  0
  2  3  2  0
  2  4  1  0
  4  5  2  0
  5  6  1  0
  6  7  2  0
  7  8  1  0
  8  9  2  0
  9 10  1  0
 10 11  2  0
 11 12  1  0
 12 13  2  0
 13 14  1  0
  8 15  1  0
 15 16  2  0
 16 17  1  0
 17 18  1  0
 18 19  1  0
 19 20  1  0
 20 21  2  0
 20 22  1  0
 19 23  1  0
 23 24  2  0
 23 25  1  0
 25 26  1  0
 26 27  2  0
 27 28  1  0
 13  4  1  0
 27 15  1  0
 12  7  1  0
 25 17  2  0
M  END
>  <AAScore>  (1) 
27.802146580716336

>  <RootName>  (1) 
./4ZLY/04_DeltaGEst/trajectory_02/rank_01/lead_0063

$$$$
