confid_14
     RDKit          3D

 31 35  0  0  0  0  0  0  0  0999 V2000
   24.2000   26.2400   35.6900 N   0  0  0  0  0  0  0  0  0  0  0  0
   24.8500   26.2800   34.4800 C   0  0  0  0  0  0  0  0  0  0  0  0
   24.3100   25.7400   33.5400 O   0  0  0  0  0  0  0  0  0  0  0  0
   26.1800   26.9700   34.4700 C   0  0  0  0  0  0  0  0  0  0  0  0
   26.6500   27.6000   35.5500 N   0  0  0  0  0  0  0  0  0  0  0  0
   27.7900   28.2700   35.6200 N   0  0  0  0  0  0  0  0  0  0  0  0
   28.5400   28.3000   34.5100 C   0  0  0  0  0  0  0  0  0  0  0  0
   29.7700   28.9400   34.5600 C   0  0  0  0  0  0  0  0  0  0  0  0
   30.7000   28.8900   33.5000 C   0  0  0  0  0  0  0  0  0  0  0  0
   30.3700   28.1400   32.3700 C   0  0  0  0  0  0  0  0  0  0  0  0
   29.1200   27.5200   32.2800 C   0  0  0  0  0  0  0  0  0  0  0  0
   28.2100   27.6100   33.3300 C   0  0  0  0  0  0  0  0  0  0  0  0
   26.9700   26.9700   33.3100 C   0  0  0  0  0  0  0  0  0  0  0  0
   26.5300   26.2400   32.2200 N   0  0  0  0  0  0  0  0  0  0  0  0
   23.0606   25.3959   35.9046 C   0  0  0  0  0  0  0  0  0  0  0  0
   23.2424   24.1036   35.9504 N   0  0  0  0  0  0  0  0  0  0  0  0
   22.2027   23.1396   36.1489 C   0  0  0  0  0  0  0  0  0  0  0  0
   21.1898   23.0837   35.3009 C   0  0  0  0  0  0  0  0  0  0  0  0
   19.8256   22.4675   35.1579 C   0  0  0  0  0  0  0  0  0  0  0  0
   19.4967   23.1604   33.9930 O   0  0  0  0  0  0  0  0  0  0  0  0
   20.7766   23.7218   34.0069 C   0  0  1  0  0  0  0  0  0  0  0  0
   20.7557   25.2639   34.0125 C   0  0  0  0  0  0  0  0  0  0  0  0
   20.6615   25.8988   35.3845 C   0  0  0  0  0  0  0  0  0  0  0  0
   21.7379   26.0207   36.2016 C   0  0  0  0  0  0  0  0  0  0  0  0
   21.5841   26.8167   37.4747 C   0  0  0  0  0  0  0  0  0  0  0  0
   20.7326   28.0761   37.2344 C   0  0  0  0  0  0  0  0  0  0  0  0
   19.5097   27.7743   36.4714 N   0  0  0  0  0  0  0  0  0  0  0  0
   19.3353   26.4618   35.8308 C   0  0  0  0  0  0  0  0  0  0  0  0
   18.4503   28.7559   36.4350 C   0  0  0  0  0  0  0  0  0  0  0  0
   18.7074   29.9668   36.6791 O   0  0  0  0  0  0  0  0  0  0  0  0
   17.0494   28.3804   36.0596 C   0  0  0  0  0  0  0  0  0  0  0  0
  1  2  1  0
  2  3  2  0
  2  4  1  0
  4  5  2  0
  5  6  1  0
  6  7  2  0
  7  8  1  0
  8  9  2  0
  9 10  1  0
 10 11  2  0
 11 12  1  0
 12 13  2  0
 13 14  1  0
  1 15  1  0
 15 16  2  0
 16 17  1  0
 17 18  2  0
 18 19  1  0
 19 20  1  0
 20 21  1  0
 21 22  1  1
 22 23  1  0
 23 24  2  0
 24 25  1  0
 25 26  1  0
 26 27  1  0
 27 28  1  0
 27 29  1  0
 29 30  2  0
 29 31  1  0
 13  4  1  0
 24 15  1  0
 12  7  1  0
 21 18  1  0
 28 23  1  0
M  END
>  <AAScore>  (1) 
6901.423528752246

>  <RootName>  (1) 
./4ZLY/04_DeltaGEst/trajectory_04/rank_00/lead_0446

$$$$
