confid_5
     RDKit          3D

 27 30  0  0  0  0  0  0  0  0999 V2000
   24.5500   26.3900   36.2500 N   0  0  0  0  0  0  0  0  0  0  0  0
   25.6000   26.1300   35.4000 C   0  0  0  0  0  0  0  0  0  0  0  0
   25.4300   25.4300   34.4200 O   0  0  0  0  0  0  0  0  0  0  0  0
   26.9800   26.6300   35.7100 C   0  0  0  0  0  0  0  0  0  0  0  0
   27.3200   26.8200   36.9800 N   0  0  0  0  0  0  0  0  0  0  0  0
   28.4700   27.4000   37.3100 N   0  0  0  0  0  0  0  0  0  0  0  0
   29.4000   27.6300   36.3700 C   0  0  0  0  0  0  0  0  0  0  0  0
   30.6600   28.0500   36.8000 C   0  0  0  0  0  0  0  0  0  0  0  0
   31.5700   28.3600   35.7800 C   0  0  0  0  0  0  0  0  0  0  0  0
   31.3700   28.1000   34.4300 C   0  0  0  0  0  0  0  0  0  0  0  0
   30.1200   27.5900   34.0500 C   0  0  0  0  0  0  0  0  0  0  0  0
   29.1500   27.3400   35.0300 C   0  0  0  0  0  0  0  0  0  0  0  0
   27.8800   26.8900   34.6600 C   0  0  0  0  0  0  0  0  0  0  0  0
   27.4800   26.6100   33.3700 N   0  0  0  0  0  0  0  0  0  0  0  0
   30.9800   28.3250   38.2099 C   0  0  0  0  0  0  0  0  0  0  0  0
   31.7136   27.3291   38.9497 C   0  0  0  0  0  0  0  0  0  0  0  0
   31.9185   27.7354   40.2290 C   0  0  0  0  0  0  0  0  0  0  0  0
   32.1826   28.0580   41.5677 C   0  0  2  0  0  0  0  0  0  0  0  0
   31.3735   27.3197   42.5633 N   0  0  0  0  0  0  0  0  0  0  0  0
   32.0184   26.9636   43.8297 C   0  0  0  0  0  0  0  0  0  0  0  0
   29.9909   26.9214   42.3849 C   0  0  0  0  0  0  0  0  0  0  0  0
   29.3694   27.1909   41.3200 O   0  0  0  0  0  0  0  0  0  0  0  0
   29.3351   26.2278   43.4092 O   0  0  0  0  0  0  0  0  0  0  0  0
   27.9805   25.8054   43.3067 C   0  0  0  0  0  0  0  0  0  0  0  0
   31.4767   29.0035   40.8095 C   0  0  0  0  0  0  0  0  0  0  0  0
   30.7904   29.9790   40.1603 C   0  0  0  0  0  0  0  0  0  0  0  0
   30.5370   29.5978   38.7971 C   0  0  0  0  0  0  0  0  0  0  0  0
  1  2  1  0
  2  3  2  0
  2  4  1  0
  4  5  2  0
  5  6  1  0
  6  7  2  0
  7  8  1  0
  8  9  2  0
  9 10  1  0
 10 11  2  0
 11 12  1  0
 12 13  2  0
 13 14  1  0
  8 15  1  0
 15 16  2  0
 16 17  1  0
 17 18  1  0
 18 19  1  1
 19 20  1  0
 19 21  1  0
 21 22  2  0
 21 23  1  0
 23 24  1  0
 18 25  1  0
 25 26  1  0
 26 27  2  0
 13  4  1  0
 27 15  1  0
 12  7  1  0
 25 17  2  0
M  END
>  <AAScore>  (1) 
11.435641531558288

>  <RootName>  (1) 
./4ZLY/04_DeltaGEst/trajectory_01/rank_01/lead_0446

$$$$
