confid_7
     RDKit          3D

 29 33  0  0  0  0  0  0  0  0999 V2000
   24.2000   26.2400   35.6900 N   0  0  0  0  0  0  0  0  0  0  0  0
   24.8500   26.2800   34.4800 C   0  0  0  0  0  0  0  0  0  0  0  0
   24.3100   25.7400   33.5400 O   0  0  0  0  0  0  0  0  0  0  0  0
   26.1800   26.9700   34.4700 C   0  0  0  0  0  0  0  0  0  0  0  0
   26.6500   27.6000   35.5500 N   0  0  0  0  0  0  0  0  0  0  0  0
   27.7900   28.2700   35.6200 N   0  0  0  0  0  0  0  0  0  0  0  0
   28.5400   28.3000   34.5100 C   0  0  0  0  0  0  0  0  0  0  0  0
   29.7700   28.9400   34.5600 C   0  0  0  0  0  0  0  0  0  0  0  0
   30.7000   28.8900   33.5000 C   0  0  0  0  0  0  0  0  0  0  0  0
   30.3700   28.1400   32.3700 C   0  0  0  0  0  0  0  0  0  0  0  0
   29.1200   27.5200   32.2800 C   0  0  0  0  0  0  0  0  0  0  0  0
   28.2100   27.6100   33.3300 C   0  0  0  0  0  0  0  0  0  0  0  0
   26.9700   26.9700   33.3100 C   0  0  0  0  0  0  0  0  0  0  0  0
   26.5300   26.2400   32.2200 N   0  0  0  0  0  0  0  0  0  0  0  0
   23.2349   25.2339   36.0458 C   0  0  0  0  0  0  0  0  0  0  0  0
   23.2861   24.0583   35.4735 N   0  0  0  0  0  0  0  0  0  0  0  0
   22.3939   22.9777   35.7636 C   0  0  0  0  0  0  0  0  0  0  0  0
   21.0891   23.1445   35.6047 C   0  0  0  0  0  0  0  0  0  0  0  0
   19.7833   22.5055   35.9692 C   0  0  0  0  0  0  0  0  0  0  0  0
   18.9973   23.5630   35.5139 O   0  0  0  0  0  0  0  0  0  0  0  0
   20.1576   24.1919   35.0695 C   0  0  1  0  0  0  0  0  0  0  0  0
   20.3500   25.6034   35.6622 C   0  0  0  0  0  0  0  0  0  0  0  0
   20.9858   25.6224   37.0424 C   0  0  0  0  0  0  0  0  0  0  0  0
   22.3340   25.5039   37.2001 C   0  0  0  0  0  0  0  0  0  0  0  0
   22.9846   25.6468   38.4409 O   0  0  0  0  0  0  0  0  0  0  0  0
   22.5434   26.4013   39.5770 C   0  0  0  0  0  0  0  0  0  0  0  0
   21.7756   27.6639   39.1751 C   0  0  0  0  0  0  0  0  0  0  0  0
   19.9832   27.3629   38.9538 S   0  0  0  0  0  0  0  0  0  0  0  0
   20.0561   25.6870   38.2247 C   0  0  0  0  0  0  0  0  0  0  0  0
  1  2  1  0
  2  3  2  0
  2  4  1  0
  4  5  2  0
  5  6  1  0
  6  7  2  0
  7  8  1  0
  8  9  2  0
  9 10  1  0
 10 11  2  0
 11 12  1  0
 12 13  2  0
 13 14  1  0
  1 15  1  0
 15 16  2  0
 16 17  1  0
 17 18  2  0
 18 19  1  0
 19 20  1  0
 20 21  1  0
 21 22  1  1
 22 23  1  0
 23 24  2  0
 24 25  1  0
 25 26  1  0
 26 27  1  0
 27 28  1  0
 28 29  1  0
 13  4  1  0
 24 15  1  0
 12  7  1  0
 21 18  1  0
 29 23  1  0
M  END
>  <AAScore>  (1) 
5496.45726943895

>  <RootName>  (1) 
./4ZLY/04_DeltaGEst/trajectory_04/rank_00/lead_0214

$$$$
