confid_10
     RDKit          3D

 27 30  0  0  0  0  0  0  0  0999 V2000
   24.5700   26.8800   35.5900 N   0  0  0  0  0  0  0  0  0  0  0  0
   25.5000   26.4000   34.6900 C   0  0  0  0  0  0  0  0  0  0  0  0
   25.1700   25.5200   33.9100 O   0  0  0  0  0  0  0  0  0  0  0  0
   26.8400   27.0200   34.7400 C   0  0  0  0  0  0  0  0  0  0  0  0
   27.3800   27.2800   35.9400 N   0  0  0  0  0  0  0  0  0  0  0  0
   28.6200   27.7400   36.0300 N   0  0  0  0  0  0  0  0  0  0  0  0
   29.3800   28.0000   34.9600 C   0  0  0  0  0  0  0  0  0  0  0  0
   30.6700   28.5000   35.1300 C   0  0  0  0  0  0  0  0  0  0  0  0
   31.5400   28.6100   34.0300 C   0  0  0  0  0  0  0  0  0  0  0  0
   31.0900   28.2200   32.7700 C   0  0  0  0  0  0  0  0  0  0  0  0
   29.8000   27.7000   32.6000 C   0  0  0  0  0  0  0  0  0  0  0  0
   28.9600   27.5500   33.7100 C   0  0  0  0  0  0  0  0  0  0  0  0
   27.6600   27.0300   33.5900 C   0  0  0  0  0  0  0  0  0  0  0  0
   27.1600   26.7400   32.3400 N   0  0  0  0  0  0  0  0  0  0  0  0
   23.3037   26.2611   35.8772 C   0  0  0  0  0  0  0  0  0  0  0  0
   22.4248   26.8915   36.6981 N   0  0  0  0  0  0  0  0  0  0  0  0
   21.2212   26.3411   36.9989 C   0  0  0  0  0  0  0  0  0  0  0  0
   20.8494   25.1045   36.4480 C   0  0  0  0  0  0  0  0  0  0  0  0
   19.5295   24.4456   36.8156 C   0  0  2  0  0  0  0  0  0  0  0  0
   19.2755   23.1593   35.9922 C   0  0  0  0  0  0  0  0  0  0  0  0
   20.4917   22.3401   35.8270 N   0  0  0  0  0  0  0  0  0  0  0  0
   21.0034   21.8082   37.1105 C   0  0  0  0  0  0  0  0  0  0  0  0
   21.6644   20.4502   36.8965 C   0  0  0  0  0  0  0  0  0  0  0  0
   21.5135   23.0847   35.0626 C   0  0  0  0  0  0  0  0  0  0  0  0
   21.7996   24.4399   35.6510 C   0  0  0  0  0  0  0  0  0  0  0  0
   22.9867   25.0394   35.3719 N   0  0  0  0  0  0  0  0  0  0  0  0
   18.3418   25.4052   36.6353 C   0  0  0  0  0  0  0  0  0  0  0  0
  1  2  1  0
  2  3  2  0
  2  4  1  0
  4  5  2  0
  5  6  1  0
  6  7  2  0
  7  8  1  0
  8  9  2  0
  9 10  1  0
 10 11  2  0
 11 12  1  0
 12 13  2  0
 13 14  1  0
  1 15  1  0
 15 16  2  0
 16 17  1  0
 17 18  2  0
 18 19  1  0
 19 20  1  0
 20 21  1  0
 21 22  1  0
 22 23  1  0
 21 24  1  0
 24 25  1  0
 25 26  2  0
 19 27  1  6
 13  4  1  0
 26 15  1  0
 12  7  1  0
 25 18  1  0
M  END
>  <AAScore>  (1) 
40182.95800232655

>  <RootName>  (1) 
./4ZLY/04_DeltaGEst/trajectory_05/rank_00/lead_0495

$$$$
