confid_7
     RDKit          3D

 27 30  0  0  0  0  0  0  0  0999 V2000
   25.3300   26.2600   34.7600 N   0  0  0  0  0  0  0  0  0  0  0  0
   26.1200   25.9200   33.6900 C   0  0  0  0  0  0  0  0  0  0  0  0
   25.6300   25.1100   32.9400 O   0  0  0  0  0  0  0  0  0  0  0  0
   27.5200   26.3800   33.4600 C   0  0  0  0  0  0  0  0  0  0  0  0
   28.1600   26.6300   34.6100 N   0  0  0  0  0  0  0  0  0  0  0  0
   29.4800   26.8500   34.5700 N   0  0  0  0  0  0  0  0  0  0  0  0
   30.1900   26.7800   33.4400 C   0  0  0  0  0  0  0  0  0  0  0  0
   31.5600   27.0500   33.5000 C   0  0  0  0  0  0  0  0  0  0  0  0
   32.2700   27.2400   32.3100 C   0  0  0  0  0  0  0  0  0  0  0  0
   31.6100   27.2500   31.0800 C   0  0  0  0  0  0  0  0  0  0  0  0
   30.2700   26.8700   31.0600 C   0  0  0  0  0  0  0  0  0  0  0  0
   29.5100   26.6900   32.2300 C   0  0  0  0  0  0  0  0  0  0  0  0
   28.1400   26.4100   32.2000 C   0  0  0  0  0  0  0  0  0  0  0  0
   27.4300   26.1300   31.0500 N   0  0  0  0  0  0  0  0  0  0  0  0
   24.1970   25.4990   35.2312 C   0  0  0  0  0  0  0  0  0  0  0  0
   24.1138   24.1612   34.9512 N   0  0  0  0  0  0  0  0  0  0  0  0
   23.0725   23.4373   35.4255 C   0  0  0  0  0  0  0  0  0  0  0  0
   22.8009   21.9887   35.2299 C   0  0  0  0  0  0  0  0  0  0  0  0
   21.4651   21.7810   35.9989 C   0  0  0  0  0  0  0  0  0  0  0  0
   21.1271   23.0822   36.5823 N   0  0  0  0  0  0  0  0  0  0  0  0
   22.1130   24.0120   36.1862 C   0  0  0  0  0  0  0  0  0  0  0  0
   22.1461   25.3306   36.4913 N   0  0  0  0  0  0  0  0  0  0  0  0
   23.1725   26.1037   36.0248 C   0  0  0  0  0  0  0  0  0  0  0  0
   23.1838   27.5630   36.3915 C   0  0  0  0  0  0  0  0  0  0  0  0
   23.9450   27.7895   37.6940 C   0  0  0  0  0  0  0  0  0  0  0  0
   19.9214   23.3788   37.3513 C   0  0  0  0  0  0  0  0  0  0  0  0
   20.2743   23.6603   38.8070 C   0  0  0  0  0  0  0  0  0  0  0  0
  1  2  1  0
  2  3  2  0
  2  4  1  0
  4  5  2  0
  5  6  1  0
  6  7  2  0
  7  8  1  0
  8  9  2  0
  9 10  1  0
 10 11  2  0
 11 12  1  0
 12 13  2  0
 13 14  1  0
  1 15  1  0
 15 16  2  0
 16 17  1  0
 17 18  1  0
 18 19  1  0
 19 20  1  0
 20 21  1  0
 21 22  1  0
 22 23  2  0
 23 24  1  0
 24 25  1  0
 20 26  1  0
 26 27  1  0
 13  4  1  0
 23 15  1  0
 12  7  1  0
 21 17  2  0
M  END
>  <AAScore>  (1) 
3790.3344513689535

>  <RootName>  (1) 
./4ZLY/04_DeltaGEst/trajectory_03/rank_00/lead_0384

$$$$
