confid_19
     RDKit          3D

 27 30  0  0  0  0  0  0  0  0999 V2000
   24.2000   26.2400   35.6900 N   0  0  0  0  0  0  0  0  0  0  0  0
   24.8500   26.2800   34.4800 C   0  0  0  0  0  0  0  0  0  0  0  0
   24.3100   25.7400   33.5400 O   0  0  0  0  0  0  0  0  0  0  0  0
   26.1800   26.9700   34.4700 C   0  0  0  0  0  0  0  0  0  0  0  0
   26.6500   27.6000   35.5500 N   0  0  0  0  0  0  0  0  0  0  0  0
   27.7900   28.2700   35.6200 N   0  0  0  0  0  0  0  0  0  0  0  0
   28.5400   28.3000   34.5100 C   0  0  0  0  0  0  0  0  0  0  0  0
   29.7700   28.9400   34.5600 C   0  0  0  0  0  0  0  0  0  0  0  0
   30.7000   28.8900   33.5000 C   0  0  0  0  0  0  0  0  0  0  0  0
   30.3700   28.1400   32.3700 C   0  0  0  0  0  0  0  0  0  0  0  0
   29.1200   27.5200   32.2800 C   0  0  0  0  0  0  0  0  0  0  0  0
   28.2100   27.6100   33.3300 C   0  0  0  0  0  0  0  0  0  0  0  0
   26.9700   26.9700   33.3100 C   0  0  0  0  0  0  0  0  0  0  0  0
   26.5300   26.2400   32.2200 N   0  0  0  0  0  0  0  0  0  0  0  0
   22.7811   26.0766   35.8209 C   0  0  0  0  0  0  0  0  0  0  0  0
   22.2821   25.1759   36.6055 N   0  0  0  0  0  0  0  0  0  0  0  0
   20.8903   25.4339   36.7177 C   0  0  0  0  0  0  0  0  0  0  0  0
   20.5516   26.5358   36.0636 C   0  0  0  0  0  0  0  0  0  0  0  0
   19.1434   26.9277   35.7176 C   0  0  0  0  0  0  0  0  0  0  0  0
   18.8664   26.6847   34.2881 N   0  0  0  0  0  0  0  0  0  0  0  0
   19.6213   25.6477   33.5606 C   0  0  0  0  0  0  0  0  0  0  0  0
   21.0162   26.1378   33.1070 C   0  0  0  0  0  0  0  0  0  0  0  0
   21.6008   27.3312   33.8975 C   0  0  0  0  0  0  0  0  0  0  0  0
   21.7698   27.1164   35.4189 C   0  0  2  0  0  0  0  0  0  0  0  0
   17.8597   27.4544   33.5952 C   0  0  0  0  0  0  0  0  0  0  0  0
   17.8286   27.4611   32.3341 O   0  0  0  0  0  0  0  0  0  0  0  0
   16.8569   28.2835   34.3398 C   0  0  0  0  0  0  0  0  0  0  0  0
  1  2  1  0
  2  3  2  0
  2  4  1  0
  4  5  2  0
  5  6  1  0
  6  7  2  0
  7  8  1  0
  8  9  2  0
  9 10  1  0
 10 11  2  0
 11 12  1  0
 12 13  2  0
 13 14  1  0
  1 15  1  0
 15 16  2  0
 16 17  1  0
 17 18  2  0
 18 19  1  0
 19 20  1  0
 20 21  1  0
 21 22  1  0
 22 23  1  0
 24 23  1  6
 20 25  1  0
 25 26  2  0
 25 27  1  0
 13  4  1  0
 24 15  1  0
 12  7  1  0
 24 18  1  0
M  END
>  <AAScore>  (1) 
324.02560654706724

>  <RootName>  (1) 
./4ZLY/04_DeltaGEst/trajectory_04/rank_00/lead_0343

$$$$
