confid_7
     RDKit          3D

 27 30  0  0  0  0  0  0  0  0999 V2000
   25.3300   26.2600   34.7600 N   0  0  0  0  0  0  0  0  0  0  0  0
   26.1200   25.9200   33.6900 C   0  0  0  0  0  0  0  0  0  0  0  0
   25.6300   25.1100   32.9400 O   0  0  0  0  0  0  0  0  0  0  0  0
   27.5200   26.3800   33.4600 C   0  0  0  0  0  0  0  0  0  0  0  0
   28.1600   26.6300   34.6100 N   0  0  0  0  0  0  0  0  0  0  0  0
   29.4800   26.8500   34.5700 N   0  0  0  0  0  0  0  0  0  0  0  0
   30.1900   26.7800   33.4400 C   0  0  0  0  0  0  0  0  0  0  0  0
   31.5600   27.0500   33.5000 C   0  0  0  0  0  0  0  0  0  0  0  0
   32.2700   27.2400   32.3100 C   0  0  0  0  0  0  0  0  0  0  0  0
   31.6100   27.2500   31.0800 C   0  0  0  0  0  0  0  0  0  0  0  0
   30.2700   26.8700   31.0600 C   0  0  0  0  0  0  0  0  0  0  0  0
   29.5100   26.6900   32.2300 C   0  0  0  0  0  0  0  0  0  0  0  0
   28.1400   26.4100   32.2000 C   0  0  0  0  0  0  0  0  0  0  0  0
   27.4300   26.1300   31.0500 N   0  0  0  0  0  0  0  0  0  0  0  0
   24.1597   25.5381   35.1929 C   0  0  0  0  0  0  0  0  0  0  0  0
   23.8834   24.2696   34.8098 N   0  0  0  0  0  0  0  0  0  0  0  0
   22.7846   23.9358   35.5182 C   0  0  0  0  0  0  0  0  0  0  0  0
   22.4221   24.9976   36.3171 C   0  0  0  0  0  0  0  0  0  0  0  0
   21.3583   25.0123   37.3749 C   0  0  0  0  0  0  0  0  0  0  0  0
   21.9368   25.3455   38.7260 C   0  0  0  0  0  0  0  0  0  0  0  0
   21.2222   25.1816   39.7506 O   0  0  0  0  0  0  0  0  0  0  0  0
   23.2982   25.7987   38.8758 N   0  0  0  0  0  0  0  0  0  0  0  0
   23.7634   27.0672   38.2824 C   0  0  0  0  0  0  0  0  0  0  0  0
   23.2760   27.2736   36.8407 C   0  0  0  0  0  0  0  0  0  0  0  0
   23.2785   26.0093   36.1038 N   0  0  0  0  0  0  0  0  0  0  0  0
   24.2091   25.0112   39.7143 C   0  0  0  0  0  0  0  0  0  0  0  0
   24.6626   23.7609   38.9690 C   0  0  0  0  0  0  0  0  0  0  0  0
  1  2  1  0
  2  3  2  0
  2  4  1  0
  4  5  2  0
  5  6  1  0
  6  7  2  0
  7  8  1  0
  8  9  2  0
  9 10  1  0
 10 11  2  0
 11 12  1  0
 12 13  2  0
 13 14  1  0
  1 15  1  0
 15 16  2  0
 16 17  1  0
 17 18  2  0
 18 19  1  0
 19 20  1  0
 20 21  2  0
 20 22  1  0
 22 23  1  0
 23 24  1  0
 24 25  1  0
 22 26  1  0
 26 27  1  0
 13  4  1  0
 25 15  1  0
 12  7  1  0
 25 18  1  0
M  END
>  <AAScore>  (1) 
10006.546430898286

>  <RootName>  (1) 
./4ZLY/04_DeltaGEst/trajectory_03/rank_00/lead_0306

$$$$
