confid_1
     RDKit          3D

 28 31  0  0  0  0  0  0  0  0999 V2000
   24.5700   26.8800   35.5900 N   0  0  0  0  0  0  0  0  0  0  0  0
   25.5000   26.4000   34.6900 C   0  0  0  0  0  0  0  0  0  0  0  0
   25.1700   25.5200   33.9100 O   0  0  0  0  0  0  0  0  0  0  0  0
   26.8400   27.0200   34.7400 C   0  0  0  0  0  0  0  0  0  0  0  0
   27.3800   27.2800   35.9400 N   0  0  0  0  0  0  0  0  0  0  0  0
   28.6200   27.7400   36.0300 N   0  0  0  0  0  0  0  0  0  0  0  0
   29.3800   28.0000   34.9600 C   0  0  0  0  0  0  0  0  0  0  0  0
   30.6700   28.5000   35.1300 C   0  0  0  0  0  0  0  0  0  0  0  0
   31.5400   28.6100   34.0300 C   0  0  0  0  0  0  0  0  0  0  0  0
   31.0900   28.2200   32.7700 C   0  0  0  0  0  0  0  0  0  0  0  0
   29.8000   27.7000   32.6000 C   0  0  0  0  0  0  0  0  0  0  0  0
   28.9600   27.5500   33.7100 C   0  0  0  0  0  0  0  0  0  0  0  0
   27.6600   27.0300   33.5900 C   0  0  0  0  0  0  0  0  0  0  0  0
   27.1600   26.7400   32.3400 N   0  0  0  0  0  0  0  0  0  0  0  0
   23.1492   26.6908   35.4717 C   0  0  0  0  0  0  0  0  0  0  0  0
   22.3926   26.6218   36.6110 N   0  0  0  0  0  0  0  0  0  0  0  0
   21.0376   26.4718   36.5760 C   0  0  0  0  0  0  0  0  0  0  0  0
   20.4064   26.3920   35.3381 C   0  0  0  0  0  0  0  0  0  0  0  0
   18.9649   26.2571   35.0385 C   0  0  0  0  0  0  0  0  0  0  0  0
   18.8884   26.0987   33.5650 N   0  0  0  0  0  0  0  0  0  0  0  0
   18.3839   24.7696   33.1447 C   0  0  0  0  0  0  0  0  0  0  0  0
   19.2989   23.5785   33.5285 C   0  0  0  0  0  0  0  0  0  0  0  0
   18.5655   22.2989   33.4094 N   0  0  0  0  0  0  0  0  0  0  0  0
   18.4796   21.8651   32.0034 C   0  0  0  0  0  0  0  0  0  0  0  0
   19.2359   21.2542   34.2013 C   0  0  0  0  0  0  0  0  0  0  0  0
   20.2280   26.4227   33.0155 C   0  0  0  0  0  0  0  0  0  0  0  0
   21.1270   26.4784   34.1884 C   0  0  0  0  0  0  0  0  0  0  0  0
   22.5105   26.6432   34.2121 C   0  0  0  0  0  0  0  0  0  0  0  0
  1  2  1  0
  2  3  2  0
  2  4  1  0
  4  5  2  0
  5  6  1  0
  6  7  2  0
  7  8  1  0
  8  9  2  0
  9 10  1  0
 10 11  2  0
 11 12  1  0
 12 13  2  0
 13 14  1  0
  1 15  1  0
 15 16  2  0
 16 17  1  0
 17 18  2  0
 18 19  1  0
 19 20  1  0
 20 21  1  0
 21 22  1  0
 22 23  1  0
 23 24  1  0
 23 25  1  0
 20 26  1  0
 26 27  1  0
 27 28  2  0
 13  4  1  0
 28 15  1  0
 12  7  1  0
 27 18  1  0
M  END
>  <AAScore>  (1) 
1814.839699730257

>  <RootName>  (1) 
./4ZLY/04_DeltaGEst/trajectory_05/rank_00/lead_0424

$$$$
