confid_11
     RDKit          3D

 27 29  0  0  0  0  0  0  0  0999 V2000
   24.4800   26.1000   36.1300 N   0  0  0  0  0  0  0  0  0  0  0  0
   25.2500   26.2500   34.9900 C   0  0  0  0  0  0  0  0  0  0  0  0
   24.7400   25.7600   33.9900 O   0  0  0  0  0  0  0  0  0  0  0  0
   26.5900   26.8900   34.9600 C   0  0  0  0  0  0  0  0  0  0  0  0
   27.0600   27.2400   36.1600 N   0  0  0  0  0  0  0  0  0  0  0  0
   28.3000   27.7100   36.2400 N   0  0  0  0  0  0  0  0  0  0  0  0
   29.0500   27.9600   35.1500 C   0  0  0  0  0  0  0  0  0  0  0  0
   30.3400   28.4900   35.2600 C   0  0  0  0  0  0  0  0  0  0  0  0
   31.1100   28.8200   34.1400 C   0  0  0  0  0  0  0  0  0  0  0  0
   30.5200   28.6700   32.8800 C   0  0  0  0  0  0  0  0  0  0  0  0
   29.2900   28.0200   32.7700 C   0  0  0  0  0  0  0  0  0  0  0  0
   28.5200   27.7100   33.8900 C   0  0  0  0  0  0  0  0  0  0  0  0
   27.2700   27.0800   33.7600 C   0  0  0  0  0  0  0  0  0  0  0  0
   26.7500   26.8800   32.4900 N   0  0  0  0  0  0  0  0  0  0  0  0
   23.5144   25.0505   36.3383 C   0  0  0  0  0  0  0  0  0  0  0  0
   23.5047   23.8192   35.7034 C   0  0  0  0  0  0  0  0  0  0  0  0
   22.4371   23.1233   36.2483 C   0  0  0  0  0  0  0  0  0  0  0  0
   22.0149   21.7942   35.8756 N   0  0  0  0  0  0  0  0  0  0  0  0
   22.6571   21.1257   34.7426 C   0  0  0  0  0  0  0  0  0  0  0  0
   20.6815   21.0177   36.6863 S   0  0  0  0  0  6  0  0  0  0  0  0
   20.6826   19.5452   36.3854 O   0  0  0  0  0  0  0  0  0  0  0  0
   20.8172   21.1939   38.1733 O   0  0  0  0  0  0  0  0  0  0  0  0
   19.1505   21.7343   36.1123 C   0  0  0  0  0  0  0  0  0  0  0  0
   17.9566   21.1279   36.8368 C   0  0  0  0  0  0  0  0  0  0  0  0
   21.8506   23.9476   37.1959 C   0  0  0  0  0  0  0  0  0  0  0  0
   22.5146   25.1193   37.2435 N   0  0  0  0  0  0  0  0  0  0  0  0
   22.2190   26.2332   38.1389 C   0  0  0  0  0  0  0  0  0  0  0  0
  1  2  1  0
  2  3  2  0
  2  4  1  0
  4  5  2  0
  5  6  1  0
  6  7  2  0
  7  8  1  0
  8  9  2  0
  9 10  1  0
 10 11  2  0
 11 12  1  0
 12 13  2  0
 13 14  1  0
  1 15  1  0
 15 16  2  0
 16 17  1  0
 17 18  1  0
 18 19  1  0
 18 20  1  0
 20 21  2  0
 20 22  2  0
 20 23  1  0
 23 24  1  0
 17 25  2  0
 25 26  1  0
 26 27  1  0
 13  4  1  0
 26 15  1  0
 12  7  1  0
M  END
>  <AAScore>  (1) 
593.4670565088888

>  <RootName>  (1) 
./4ZLY/04_DeltaGEst/trajectory_00/rank_00/lead_0024

$$$$
