confid_10
     RDKit          3D

 28 31  0  0  0  0  0  0  0  0999 V2000
   24.4800   26.1000   36.1300 N   0  0  0  0  0  0  0  0  0  0  0  0
   25.2500   26.2500   34.9900 C   0  0  0  0  0  0  0  0  0  0  0  0
   24.7400   25.7600   33.9900 O   0  0  0  0  0  0  0  0  0  0  0  0
   26.5900   26.8900   34.9600 C   0  0  0  0  0  0  0  0  0  0  0  0
   27.0600   27.2400   36.1600 N   0  0  0  0  0  0  0  0  0  0  0  0
   28.3000   27.7100   36.2400 N   0  0  0  0  0  0  0  0  0  0  0  0
   29.0500   27.9600   35.1500 C   0  0  0  0  0  0  0  0  0  0  0  0
   30.3400   28.4900   35.2600 C   0  0  0  0  0  0  0  0  0  0  0  0
   31.1100   28.8200   34.1400 C   0  0  0  0  0  0  0  0  0  0  0  0
   30.5200   28.6700   32.8800 C   0  0  0  0  0  0  0  0  0  0  0  0
   29.2900   28.0200   32.7700 C   0  0  0  0  0  0  0  0  0  0  0  0
   28.5200   27.7100   33.8900 C   0  0  0  0  0  0  0  0  0  0  0  0
   27.2700   27.0800   33.7600 C   0  0  0  0  0  0  0  0  0  0  0  0
   26.7500   26.8800   32.4900 N   0  0  0  0  0  0  0  0  0  0  0  0
   23.4321   25.1250   36.2918 C   0  0  0  0  0  0  0  0  0  0  0  0
   23.2840   24.0403   35.4988 N   0  0  0  0  0  0  0  0  0  0  0  0
   22.2608   23.3711   36.0682 C   0  0  0  0  0  0  0  0  0  0  0  0
   21.7541   22.0433   35.6002 C   0  0  0  0  0  0  0  0  0  0  0  0
   20.4155   21.7843   36.1737 N   0  0  0  0  0  0  0  0  0  0  0  0
   19.9769   20.4246   35.8261 C   0  0  0  0  0  0  0  0  0  0  0  0
   20.4311   21.9545   37.6434 C   0  0  0  0  0  0  0  0  0  0  0  0
   20.7061   23.4236   38.0070 C   0  0  0  0  0  0  0  0  0  0  0  0
   21.7987   23.9538   37.1894 N   0  0  0  0  0  0  0  0  0  0  0  0
   22.5077   25.0933   37.3272 C   0  0  0  0  0  0  0  0  0  0  0  0
   22.3804   26.0854   38.4548 C   0  0  0  0  0  0  0  0  0  0  0  0
   22.5625   27.3709   37.9789 F   0  0  0  0  0  0  0  0  0  0  0  0
   21.1286   26.0212   39.0366 F   0  0  0  0  0  0  0  0  0  0  0  0
   23.3391   25.8140   39.4124 F   0  0  0  0  0  0  0  0  0  0  0  0
  1  2  1  0
  2  3  2  0
  2  4  1  0
  4  5  2  0
  5  6  1  0
  6  7  2  0
  7  8  1  0
  8  9  2  0
  9 10  1  0
 10 11  2  0
 11 12  1  0
 12 13  2  0
 13 14  1  0
  1 15  1  0
 15 16  1  0
 16 17  2  0
 17 18  1  0
 18 19  1  0
 19 20  1  0
 19 21  1  0
 21 22  1  0
 22 23  1  0
 23 24  1  0
 24 25  1  0
 25 26  1  0
 25 27  1  0
 25 28  1  0
 13  4  1  0
 24 15  2  0
 12  7  1  0
 23 17  1  0
M  END
>  <AAScore>  (1) 
16435.72712347902

>  <RootName>  (1) 
./4ZLY/04_DeltaGEst/trajectory_00/rank_01/lead_0097

$$$$
