confid_6
     RDKit          3D

 25 27  0  0  0  0  0  0  0  0999 V2000
   24.5700   26.8800   35.5900 N   0  0  0  0  0  0  0  0  0  0  0  0
   25.5000   26.4000   34.6900 C   0  0  0  0  0  0  0  0  0  0  0  0
   25.1700   25.5200   33.9100 O   0  0  0  0  0  0  0  0  0  0  0  0
   26.8400   27.0200   34.7400 C   0  0  0  0  0  0  0  0  0  0  0  0
   27.3800   27.2800   35.9400 N   0  0  0  0  0  0  0  0  0  0  0  0
   28.6200   27.7400   36.0300 N   0  0  0  0  0  0  0  0  0  0  0  0
   29.3800   28.0000   34.9600 C   0  0  0  0  0  0  0  0  0  0  0  0
   30.6700   28.5000   35.1300 C   0  0  0  0  0  0  0  0  0  0  0  0
   31.5400   28.6100   34.0300 C   0  0  0  0  0  0  0  0  0  0  0  0
   31.0900   28.2200   32.7700 C   0  0  0  0  0  0  0  0  0  0  0  0
   29.8000   27.7000   32.6000 C   0  0  0  0  0  0  0  0  0  0  0  0
   28.9600   27.5500   33.7100 C   0  0  0  0  0  0  0  0  0  0  0  0
   27.6600   27.0300   33.5900 C   0  0  0  0  0  0  0  0  0  0  0  0
   27.1600   26.7400   32.3400 N   0  0  0  0  0  0  0  0  0  0  0  0
   33.1585   29.2676   34.2478 S   0  0  0  0  0  6  0  0  0  0  0  0
   33.7572   28.6927   35.5009 O   0  0  0  0  0  0  0  0  0  0  0  0
   34.0282   28.8826   33.0808 O   0  0  0  0  0  0  0  0  0  0  0  0
   33.0533   31.0064   34.3987 N   0  0  0  0  0  0  0  0  0  0  0  0
   32.7350   31.6282   33.1056 C   0  0  0  0  0  0  0  0  0  0  0  0
   34.1059   32.2792   32.9907 C   0  0  0  0  0  0  0  0  0  0  0  0
   34.0935   33.8152   33.0151 C   0  0  0  0  0  0  0  0  0  0  0  0
   35.3874   34.2800   33.1620 F   0  0  0  0  0  0  0  0  0  0  0  0
   33.5832   34.2868   31.8198 F   0  0  0  0  0  0  0  0  0  0  0  0
   33.3203   34.3013   34.0570 F   0  0  0  0  0  0  0  0  0  0  0  0
   34.3864   31.6213   34.3343 C   0  0  0  0  0  0  0  0  0  0  0  0
  1  2  1  0
  2  3  2  0
  2  4  1  0
  4  5  2  0
  5  6  1  0
  6  7  2  0
  7  8  1  0
  8  9  2  0
  9 10  1  0
 10 11  2  0
 11 12  1  0
 12 13  2  0
 13 14  1  0
  9 15  1  0
 15 16  2  0
 15 17  2  0
 15 18  1  0
 18 19  1  0
 19 20  1  0
 20 21  1  0
 21 22  1  0
 21 23  1  0
 21 24  1  0
 20 25  1  0
 13  4  1  0
 25 18  1  0
 12  7  1  0
M  END
>  <AAScore>  (1) 
-5.561291544973786

>  <RootName>  (1) 
./4ZLY/04_DeltaGEst/trajectory_05/rank_01/lead_0492

$$$$
