confid_0
     RDKit          3D

 27 30  0  0  0  0  0  0  0  0999 V2000
   24.5700   26.8800   35.5900 N   0  0  0  0  0  0  0  0  0  0  0  0
   25.5000   26.4000   34.6900 C   0  0  0  0  0  0  0  0  0  0  0  0
   25.1700   25.5200   33.9100 O   0  0  0  0  0  0  0  0  0  0  0  0
   26.8400   27.0200   34.7400 C   0  0  0  0  0  0  0  0  0  0  0  0
   27.3800   27.2800   35.9400 N   0  0  0  0  0  0  0  0  0  0  0  0
   28.6200   27.7400   36.0300 N   0  0  0  0  0  0  0  0  0  0  0  0
   29.3800   28.0000   34.9600 C   0  0  0  0  0  0  0  0  0  0  0  0
   30.6700   28.5000   35.1300 C   0  0  0  0  0  0  0  0  0  0  0  0
   31.5400   28.6100   34.0300 C   0  0  0  0  0  0  0  0  0  0  0  0
   31.0900   28.2200   32.7700 C   0  0  0  0  0  0  0  0  0  0  0  0
   29.8000   27.7000   32.6000 C   0  0  0  0  0  0  0  0  0  0  0  0
   28.9600   27.5500   33.7100 C   0  0  0  0  0  0  0  0  0  0  0  0
   27.6600   27.0300   33.5900 C   0  0  0  0  0  0  0  0  0  0  0  0
   27.1600   26.7400   32.3400 N   0  0  0  0  0  0  0  0  0  0  0  0
   23.3036   26.2619   35.8785 C   0  0  0  0  0  0  0  0  0  0  0  0
   22.9813   25.0329   35.3608 N   0  0  0  0  0  0  0  0  0  0  0  0
   21.7895   24.4314   35.6375 C   0  0  0  0  0  0  0  0  0  0  0  0
   20.8972   25.0909   36.4735 C   0  0  0  0  0  0  0  0  0  0  0  0
   19.5349   24.6982   36.9414 C   0  0  1  0  0  0  0  0  0  0  0  0
   19.5779   23.4361   37.7703 C   0  0  0  0  0  0  0  0  0  0  0  0
   20.2879   23.3814   38.7643 O   0  0  0  0  0  0  0  0  0  0  0  0
   18.7592   22.2376   37.3944 C   0  0  0  0  0  0  0  0  0  0  0  0
   19.1788   25.9071   37.7840 C   0  0  0  0  0  0  0  0  0  0  0  0
   20.1559   26.8172   37.7991 C   0  0  0  0  0  0  0  0  0  0  0  0
   21.2341   26.3118   36.9802 C   0  0  0  0  0  0  0  0  0  0  0  0
   22.4189   26.9051   36.6980 N   0  0  0  0  0  0  0  0  0  0  0  0
   17.8740   26.0877   38.4922 C   0  0  0  0  0  0  0  0  0  0  0  0
  1  2  1  0
  2  3  2  0
  2  4  1  0
  4  5  2  0
  5  6  1  0
  6  7  2  0
  7  8  1  0
  8  9  2  0
  9 10  1  0
 10 11  2  0
 11 12  1  0
 12 13  2  0
 13 14  1  0
  1 15  1  0
 15 16  2  0
 16 17  1  0
 17 18  2  0
 18 19  1  0
 19 20  1  1
 20 21  2  0
 20 22  1  0
 19 23  1  0
 23 24  2  0
 24 25  1  0
 25 26  2  0
 23 27  1  0
 13  4  1  0
 26 15  1  0
 12  7  1  0
 25 18  1  0
M  END
>  <AAScore>  (1) 
39266.3583368056

>  <RootName>  (1) 
./4ZLY/04_DeltaGEst/trajectory_05/rank_00/lead_0359

$$$$
