confid_11
     RDKit          3D

 26 28  0  0  0  0  0  0  0  0999 V2000
   24.5700   26.8800   35.5900 N   0  0  0  0  0  0  0  0  0  0  0  0
   25.5000   26.4000   34.6900 C   0  0  0  0  0  0  0  0  0  0  0  0
   25.1700   25.5200   33.9100 O   0  0  0  0  0  0  0  0  0  0  0  0
   26.8400   27.0200   34.7400 C   0  0  0  0  0  0  0  0  0  0  0  0
   27.3800   27.2800   35.9400 N   0  0  0  0  0  0  0  0  0  0  0  0
   28.6200   27.7400   36.0300 N   0  0  0  0  0  0  0  0  0  0  0  0
   29.3800   28.0000   34.9600 C   0  0  0  0  0  0  0  0  0  0  0  0
   30.6700   28.5000   35.1300 C   0  0  0  0  0  0  0  0  0  0  0  0
   31.5400   28.6100   34.0300 C   0  0  0  0  0  0  0  0  0  0  0  0
   31.0900   28.2200   32.7700 C   0  0  0  0  0  0  0  0  0  0  0  0
   29.8000   27.7000   32.6000 C   0  0  0  0  0  0  0  0  0  0  0  0
   28.9600   27.5500   33.7100 C   0  0  0  0  0  0  0  0  0  0  0  0
   27.6600   27.0300   33.5900 C   0  0  0  0  0  0  0  0  0  0  0  0
   27.1600   26.7400   32.3400 N   0  0  0  0  0  0  0  0  0  0  0  0
   23.1488   26.6793   35.4704 C   0  0  0  0  0  0  0  0  0  0  0  0
   22.3714   26.5556   36.6318 C   0  0  0  0  0  0  0  0  0  0  0  0
   20.9867   26.3860   36.5443 C   0  0  0  0  0  0  0  0  0  0  0  0
   20.3588   26.3500   35.2922 C   0  0  0  0  0  0  0  0  0  0  0  0
   21.1250   26.5030   34.1304 C   0  0  0  0  0  0  0  0  0  0  0  0
   22.5100   26.6715   34.2164 C   0  0  0  0  0  0  0  0  0  0  0  0
   18.6113   26.1601   35.1691 S   0  0  0  0  0  6  0  0  0  0  0  0
   18.3132   25.1557   34.0907 O   0  0  0  0  0  0  0  0  0  0  0  0
   18.0596   25.6431   36.4699 O   0  0  0  0  0  0  0  0  0  0  0  0
   17.8752   27.6919   34.7692 N   0  0  0  0  0  0  0  0  0  0  0  0
   18.1493   28.6614   35.8376 C   0  0  0  0  0  0  0  0  0  0  0  0
   16.4265   27.5091   34.6161 C   0  0  0  0  0  0  0  0  0  0  0  0
  1  2  1  0
  2  3  2  0
  2  4  1  0
  4  5  2  0
  5  6  1  0
  6  7  2  0
  7  8  1  0
  8  9  2  0
  9 10  1  0
 10 11  2  0
 11 12  1  0
 12 13  2  0
 13 14  1  0
  1 15  1  0
 15 16  2  0
 16 17  1  0
 17 18  2  0
 18 19  1  0
 19 20  2  0
 18 21  1  0
 21 22  2  0
 21 23  2  0
 21 24  1  0
 24 25  1  0
 24 26  1  0
 13  4  1  0
 20 15  1  0
 12  7  1  0
M  END
>  <AAScore>  (1) 
1797.5986480932268

>  <RootName>  (1) 
./4ZLY/04_DeltaGEst/trajectory_05/rank_00/lead_0478

$$$$
