confid_17
     RDKit          3D

 27 30  0  0  0  0  0  0  0  0999 V2000
   24.5500   26.3900   36.2500 N   0  0  0  0  0  0  0  0  0  0  0  0
   25.6000   26.1300   35.4000 C   0  0  0  0  0  0  0  0  0  0  0  0
   25.4300   25.4300   34.4200 O   0  0  0  0  0  0  0  0  0  0  0  0
   26.9800   26.6300   35.7100 C   0  0  0  0  0  0  0  0  0  0  0  0
   27.3200   26.8200   36.9800 N   0  0  0  0  0  0  0  0  0  0  0  0
   28.4700   27.4000   37.3100 N   0  0  0  0  0  0  0  0  0  0  0  0
   29.4000   27.6300   36.3700 C   0  0  0  0  0  0  0  0  0  0  0  0
   30.6600   28.0500   36.8000 C   0  0  0  0  0  0  0  0  0  0  0  0
   31.5700   28.3600   35.7800 C   0  0  0  0  0  0  0  0  0  0  0  0
   31.3700   28.1000   34.4300 C   0  0  0  0  0  0  0  0  0  0  0  0
   30.1200   27.5900   34.0500 C   0  0  0  0  0  0  0  0  0  0  0  0
   29.1500   27.3400   35.0300 C   0  0  0  0  0  0  0  0  0  0  0  0
   27.8800   26.8900   34.6600 C   0  0  0  0  0  0  0  0  0  0  0  0
   27.4800   26.6100   33.3700 N   0  0  0  0  0  0  0  0  0  0  0  0
   23.1874   25.8993   36.0009 C   0  0  0  0  0  0  0  0  0  0  0  0
   22.5534   26.6508   34.8065 C   0  0  0  0  0  0  0  0  0  0  0  0
   21.0441   26.9063   34.9874 C   0  0  0  0  0  0  0  0  0  0  0  0
   20.3601   25.7857   35.6646 N   0  0  0  0  0  0  0  0  0  0  0  0
   20.2830   24.5801   34.8111 C   0  0  0  0  0  0  0  0  0  0  0  0
   19.1058   23.7328   35.2149 C   0  0  0  0  0  0  0  0  0  0  0  0
   17.7998   24.1966   35.0179 C   0  0  0  0  0  0  0  0  0  0  0  0
   16.7473   23.4257   35.3981 N   0  0  0  0  0  0  0  0  0  0  0  0
   16.9274   22.2292   35.9606 N   0  0  0  0  0  0  0  0  0  0  0  0
   18.1716   21.7297   36.1779 C   0  0  0  0  0  0  0  0  0  0  0  0
   19.2879   22.4775   35.8070 C   0  0  0  0  0  0  0  0  0  0  0  0
   20.8998   25.5041   37.0229 C   0  0  0  0  0  0  0  0  0  0  0  0
   22.3243   26.0463   37.2615 C   0  0  0  0  0  0  0  0  0  0  0  0
  1  2  1  0
  2  3  2  0
  2  4  1  0
  4  5  2  0
  5  6  1  0
  6  7  2  0
  7  8  1  0
  8  9  2  0
  9 10  1  0
 10 11  2  0
 11 12  1  0
 12 13  2  0
 13 14  1  0
  1 15  1  0
 15 16  1  0
 16 17  1  0
 17 18  1  0
 18 19  1  0
 19 20  1  0
 20 21  2  0
 21 22  1  0
 22 23  2  0
 23 24  1  0
 24 25  2  0
 18 26  1  0
 26 27  1  0
 13  4  1  0
 27 15  1  0
 12  7  1  0
 25 20  1  0
M  END
>  <AAScore>  (1) 
361.9431803865308

>  <RootName>  (1) 
./4ZLY/04_DeltaGEst/trajectory_01/rank_00/lead_0051

$$$$
