confid_11
     RDKit          3D

 30 34  0  0  0  0  0  0  0  0999 V2000
   25.3300   26.2600   34.7600 N   0  0  0  0  0  0  0  0  0  0  0  0
   26.1200   25.9200   33.6900 C   0  0  0  0  0  0  0  0  0  0  0  0
   25.6300   25.1100   32.9400 O   0  0  0  0  0  0  0  0  0  0  0  0
   27.5200   26.3800   33.4600 C   0  0  0  0  0  0  0  0  0  0  0  0
   28.1600   26.6300   34.6100 N   0  0  0  0  0  0  0  0  0  0  0  0
   29.4800   26.8500   34.5700 N   0  0  0  0  0  0  0  0  0  0  0  0
   30.1900   26.7800   33.4400 C   0  0  0  0  0  0  0  0  0  0  0  0
   31.5600   27.0500   33.5000 C   0  0  0  0  0  0  0  0  0  0  0  0
   32.2700   27.2400   32.3100 C   0  0  0  0  0  0  0  0  0  0  0  0
   31.6100   27.2500   31.0800 C   0  0  0  0  0  0  0  0  0  0  0  0
   30.2700   26.8700   31.0600 C   0  0  0  0  0  0  0  0  0  0  0  0
   29.5100   26.6900   32.2300 C   0  0  0  0  0  0  0  0  0  0  0  0
   28.1400   26.4100   32.2000 C   0  0  0  0  0  0  0  0  0  0  0  0
   27.4300   26.1300   31.0500 N   0  0  0  0  0  0  0  0  0  0  0  0
   26.5171   27.1364   30.4942 C   0  0  0  0  0  0  0  0  0  0  0  0
   26.7020   27.2249   28.9763 C   0  0  0  0  0  0  0  0  0  0  0  0
   26.7578   25.8903   28.3645 N   0  0  0  0  0  0  0  0  0  0  0  0
   26.9143   25.7789   26.9416 C   0  0  0  0  0  0  0  0  0  0  0  0
   28.1337   26.1439   26.3595 C   0  0  0  0  0  0  0  0  0  0  0  0
   28.3104   26.0052   24.9849 C   0  0  0  0  0  0  0  0  0  0  0  0
   27.3061   25.5128   24.2166 N   0  0  0  0  0  0  0  0  0  0  0  0
   26.1017   25.1531   24.7424 C   0  0  0  0  0  0  0  0  0  0  0  0
   25.1006   24.6381   23.9124 O   0  0  0  0  0  0  0  0  0  0  0  0
   25.2855   24.4592   22.5128 C   0  0  0  0  0  0  0  0  0  0  0  0
   25.8310   23.0939   22.1408 C   0  0  0  0  0  0  0  0  0  0  0  0
   24.3586   23.4124   21.9273 C   0  0  0  0  0  0  0  0  0  0  0  0
   25.8673   25.2985   26.1243 C   0  0  0  0  0  0  0  0  0  0  0  0
   24.5392   24.9047   26.7171 C   0  0  0  0  0  0  0  0  0  0  0  0
   26.6672   24.6799   29.1895 C   0  0  0  0  0  0  0  0  0  0  0  0
   27.5809   24.8133   30.4109 C   0  0  0  0  0  0  0  0  0  0  0  0
  1  2  1  0
  2  3  2  0
  2  4  1  0
  4  5  2  0
  5  6  1  0
  6  7  2  0
  7  8  1  0
  8  9  2  0
  9 10  1  0
 10 11  2  0
 11 12  1  0
 12 13  2  0
 13 14  1  0
 14 15  1  0
 15 16  1  0
 16 17  1  0
 17 18  1  0
 18 19  2  0
 19 20  1  0
 20 21  2  0
 21 22  1  0
 22 23  1  0
 23 24  1  0
 24 25  1  0
 25 26  1  0
 22 27  2  0
 27 28  1  0
 17 29  1  0
 29 30  1  0
 13  4  1  0
 30 14  1  0
 12  7  1  0
 27 18  1  0
 26 24  1  0
M  END
>  <AAScore>  (1) 
27.83102397752349

>  <RootName>  (1) 
./4ZLY/04_DeltaGEst/trajectory_03/rank_01/lead_0014

$$$$
