confid_17
     RDKit          3D

 27 30  0  0  0  0  0  0  0  0999 V2000
   24.6900   26.1200   35.5300 N   0  0  0  0  0  0  0  0  0  0  0  0
   25.6600   25.6700   34.6600 C   0  0  0  0  0  0  0  0  0  0  0  0
   25.2400   25.0100   33.7200 O   0  0  0  0  0  0  0  0  0  0  0  0
   27.0300   26.2200   34.8800 C   0  0  0  0  0  0  0  0  0  0  0  0
   27.3500   26.7300   36.0700 N   0  0  0  0  0  0  0  0  0  0  0  0
   28.5700   27.1800   36.3300 N   0  0  0  0  0  0  0  0  0  0  0  0
   29.5300   27.1100   35.3900 C   0  0  0  0  0  0  0  0  0  0  0  0
   30.8300   27.5700   35.6500 C   0  0  0  0  0  0  0  0  0  0  0  0
   31.8500   27.5400   34.6900 C   0  0  0  0  0  0  0  0  0  0  0  0
   31.5100   27.1200   33.4000 C   0  0  0  0  0  0  0  0  0  0  0  0
   30.2200   26.6300   33.1100 C   0  0  0  0  0  0  0  0  0  0  0  0
   29.2400   26.6600   34.1000 C   0  0  0  0  0  0  0  0  0  0  0  0
   27.9300   26.2600   33.8100 C   0  0  0  0  0  0  0  0  0  0  0  0
   27.5200   25.7100   32.6100 N   0  0  0  0  0  0  0  0  0  0  0  0
   31.1484   28.0584   36.9612 N   0  0  0  0  0  0  0  0  0  0  0  0
   31.2919   29.5106   37.1563 C   0  0  0  0  0  0  0  0  0  0  0  0
   31.8406   29.8631   38.5464 C   0  0  0  0  0  0  0  0  0  0  0  0
   31.1565   29.0503   39.6182 C   0  0  0  0  0  0  0  0  0  0  0  0
   30.8153   29.6102   40.8694 C   0  0  0  0  0  0  0  0  0  0  0  0
   31.0923   30.9726   41.0887 O   0  0  0  0  0  0  0  0  0  0  0  0
   30.8067   31.7005   42.2785 C   0  0  0  0  0  0  0  0  0  0  0  0
   30.2154   28.7820   41.8486 C   0  0  0  0  0  0  0  0  0  0  0  0
   29.8535   29.2586   43.0651 F   0  0  0  0  0  0  0  0  0  0  0  0
   29.9880   27.4293   41.5829 C   0  0  0  0  0  0  0  0  0  0  0  0
   30.3496   26.8793   40.3546 C   0  0  0  0  0  0  0  0  0  0  0  0
   30.9264   27.6859   39.3669 C   0  0  0  0  0  0  0  0  0  0  0  0
   31.3602   27.0966   38.0520 C   0  0  0  0  0  0  0  0  0  0  0  0
  1  2  1  0
  2  3  2  0
  2  4  1  0
  4  5  2  0
  5  6  1  0
  6  7  2  0
  7  8  1  0
  8  9  2  0
  9 10  1  0
 10 11  2  0
 11 12  1  0
 12 13  2  0
 13 14  1  0
  8 15  1  0
 15 16  1  0
 16 17  1  0
 17 18  1  0
 18 19  2  0
 19 20  1  0
 20 21  1  0
 19 22  1  0
 22 23  1  0
 22 24  2  0
 24 25  1  0
 25 26  2  0
 26 27  1  0
 13  4  1  0
 27 15  1  0
 12  7  1  0
 26 18  1  0
M  END
>  <AAScore>  (1) 
-6.435210649815082

>  <RootName>  (1) 
./4ZLY/04_DeltaGEst/trajectory_02/rank_01/lead_0470

$$$$
