confid_0
     RDKit          3D

 28 32  0  0  0  0  0  0  0  0999 V2000
   24.6900   26.1200   35.5300 N   0  0  0  0  0  0  0  0  0  0  0  0
   25.6600   25.6700   34.6600 C   0  0  0  0  0  0  0  0  0  0  0  0
   25.2400   25.0100   33.7200 O   0  0  0  0  0  0  0  0  0  0  0  0
   27.0300   26.2200   34.8800 C   0  0  0  0  0  0  0  0  0  0  0  0
   27.3500   26.7300   36.0700 N   0  0  0  0  0  0  0  0  0  0  0  0
   28.5700   27.1800   36.3300 N   0  0  0  0  0  0  0  0  0  0  0  0
   29.5300   27.1100   35.3900 C   0  0  0  0  0  0  0  0  0  0  0  0
   30.8300   27.5700   35.6500 C   0  0  0  0  0  0  0  0  0  0  0  0
   31.8500   27.5400   34.6900 C   0  0  0  0  0  0  0  0  0  0  0  0
   31.5100   27.1200   33.4000 C   0  0  0  0  0  0  0  0  0  0  0  0
   30.2200   26.6300   33.1100 C   0  0  0  0  0  0  0  0  0  0  0  0
   29.2400   26.6600   34.1000 C   0  0  0  0  0  0  0  0  0  0  0  0
   27.9300   26.2600   33.8100 C   0  0  0  0  0  0  0  0  0  0  0  0
   27.5200   25.7100   32.6100 N   0  0  0  0  0  0  0  0  0  0  0  0
   23.2657   25.9722   35.3540 C   0  0  0  0  0  0  0  0  0  0  0  0
   22.8071   24.9621   34.6664 N   0  0  0  0  0  0  0  0  0  0  0  0
   21.4550   24.5892   34.3745 C   0  0  0  0  0  0  0  0  0  0  0  0
   20.5392   24.4990   35.3278 C   0  0  0  0  0  0  0  0  0  0  0  0
   19.2252   23.8131   35.5535 C   0  0  0  0  0  0  0  0  0  0  0  0
   19.1383   24.1547   36.8993 O   0  0  0  0  0  0  0  0  0  0  0  0
   20.3307   24.8623   36.7674 C   0  0  2  0  0  0  0  0  0  0  0  0
   20.0730   26.3579   36.9735 C   0  0  0  0  0  0  0  0  0  0  0  0
   21.1517   27.2438   36.4370 C   0  0  0  0  0  0  0  0  0  0  0  0
   22.3956   27.0691   35.8380 C   0  0  0  0  0  0  0  0  0  0  0  0
   22.5143   28.5026   35.8248 C   0  0  0  0  0  0  0  0  0  0  0  0
   21.2575   28.7065   36.4015 N   0  0  0  0  0  0  0  0  0  0  0  0
   22.5767   29.0733   34.4002 C   0  0  0  0  0  0  0  0  0  0  0  0
   23.6250   29.0564   36.7306 C   0  0  0  0  0  0  0  0  0  0  0  0
  1  2  1  0
  2  3  2  0
  2  4  1  0
  4  5  2  0
  5  6  1  0
  6  7  2  0
  7  8  1  0
  8  9  2  0
  9 10  1  0
 10 11  2  0
 11 12  1  0
 12 13  2  0
 13 14  1  0
  1 15  1  0
 15 16  2  0
 16 17  1  0
 17 18  2  0
 18 19  1  0
 19 20  1  0
 20 21  1  0
 21 22  1  6
 22 23  1  0
 23 24  2  0
 24 25  1  0
 25 26  1  0
 25 27  1  0
 25 28  1  0
 13  4  1  0
 24 15  1  0
 12  7  1  0
 21 18  1  0
 26 23  1  0
M  END
>  <AAScore>  (1) 
15150.39979841904

>  <RootName>  (1) 
./4ZLY/04_DeltaGEst/trajectory_02/rank_00/lead_0235

$$$$
