confid_8
     RDKit          3D

 28 31  0  0  0  0  0  0  0  0999 V2000
   24.5700   26.8800   35.5900 N   0  0  0  0  0  0  0  0  0  0  0  0
   25.5000   26.4000   34.6900 C   0  0  0  0  0  0  0  0  0  0  0  0
   25.1700   25.5200   33.9100 O   0  0  0  0  0  0  0  0  0  0  0  0
   26.8400   27.0200   34.7400 C   0  0  0  0  0  0  0  0  0  0  0  0
   27.3800   27.2800   35.9400 N   0  0  0  0  0  0  0  0  0  0  0  0
   28.6200   27.7400   36.0300 N   0  0  0  0  0  0  0  0  0  0  0  0
   29.3800   28.0000   34.9600 C   0  0  0  0  0  0  0  0  0  0  0  0
   30.6700   28.5000   35.1300 C   0  0  0  0  0  0  0  0  0  0  0  0
   31.5400   28.6100   34.0300 C   0  0  0  0  0  0  0  0  0  0  0  0
   31.0900   28.2200   32.7700 C   0  0  0  0  0  0  0  0  0  0  0  0
   29.8000   27.7000   32.6000 C   0  0  0  0  0  0  0  0  0  0  0  0
   28.9600   27.5500   33.7100 C   0  0  0  0  0  0  0  0  0  0  0  0
   27.6600   27.0300   33.5900 C   0  0  0  0  0  0  0  0  0  0  0  0
   27.1600   26.7400   32.3400 N   0  0  0  0  0  0  0  0  0  0  0  0
   23.3113   26.2522   35.8899 C   0  0  0  0  0  0  0  0  0  0  0  0
   22.9982   25.0159   35.3859 N   0  0  0  0  0  0  0  0  0  0  0  0
   21.8127   24.4086   35.6761 C   0  0  0  0  0  0  0  0  0  0  0  0
   20.9189   25.0702   36.5082 C   0  0  0  0  0  0  0  0  0  0  0  0
   19.5636   24.6630   36.9713 C   0  0  0  0  0  0  0  0  0  0  0  0
   19.1009   25.8787   37.8198 C   0  0  0  0  0  0  0  0  0  0  0  0
   20.2234   26.8194   37.8230 N   0  0  0  0  0  0  0  0  0  0  0  0
   21.2486   26.2876   37.0088 C   0  0  0  0  0  0  0  0  0  0  0  0
   22.4256   26.8916   36.7102 N   0  0  0  0  0  0  0  0  0  0  0  0
   20.2074   28.1477   38.4332 C   0  0  0  0  0  0  0  0  0  0  0  0
   21.0417   28.1649   39.7211 C   0  0  0  0  0  0  0  0  0  0  0  0
   20.9776   29.5368   40.3888 C   0  0  0  0  0  0  0  0  0  0  0  0
   22.3628   27.8707   39.4325 F   0  0  0  0  0  0  0  0  0  0  0  0
   20.5542   27.2134   40.6009 F   0  0  0  0  0  0  0  0  0  0  0  0
  1  2  1  0
  2  3  2  0
  2  4  1  0
  4  5  2  0
  5  6  1  0
  6  7  2  0
  7  8  1  0
  8  9  2  0
  9 10  1  0
 10 11  2  0
 11 12  1  0
 12 13  2  0
 13 14  1  0
  1 15  1  0
 15 16  2  0
 16 17  1  0
 17 18  2  0
 18 19  1  0
 19 20  1  0
 20 21  1  0
 21 22  1  0
 22 23  2  0
 21 24  1  0
 24 25  1  0
 25 26  1  0
 25 27  1  0
 25 28  1  0
 13  4  1  0
 23 15  1  0
 12  7  1  0
 22 18  1  0
M  END
>  <AAScore>  (1) 
39812.666088403705

>  <RootName>  (1) 
./4ZLY/04_DeltaGEst/trajectory_05/rank_00/lead_0254

$$$$
