confid_13
     RDKit          3D

 27 29  0  0  0  0  0  0  0  0999 V2000
   24.5700   26.8800   35.5900 N   0  0  0  0  0  0  0  0  0  0  0  0
   25.5000   26.4000   34.6900 C   0  0  0  0  0  0  0  0  0  0  0  0
   25.1700   25.5200   33.9100 O   0  0  0  0  0  0  0  0  0  0  0  0
   26.8400   27.0200   34.7400 C   0  0  0  0  0  0  0  0  0  0  0  0
   27.3800   27.2800   35.9400 N   0  0  0  0  0  0  0  0  0  0  0  0
   28.6200   27.7400   36.0300 N   0  0  0  0  0  0  0  0  0  0  0  0
   29.3800   28.0000   34.9600 C   0  0  0  0  0  0  0  0  0  0  0  0
   30.6700   28.5000   35.1300 C   0  0  0  0  0  0  0  0  0  0  0  0
   31.5400   28.6100   34.0300 C   0  0  0  0  0  0  0  0  0  0  0  0
   31.0900   28.2200   32.7700 C   0  0  0  0  0  0  0  0  0  0  0  0
   29.8000   27.7000   32.6000 C   0  0  0  0  0  0  0  0  0  0  0  0
   28.9600   27.5500   33.7100 C   0  0  0  0  0  0  0  0  0  0  0  0
   27.6600   27.0300   33.5900 C   0  0  0  0  0  0  0  0  0  0  0  0
   27.1600   26.7400   32.3400 N   0  0  0  0  0  0  0  0  0  0  0  0
   33.1590   29.2766   34.2203 S   0  0  0  0  0  6  0  0  0  0  0  0
   34.1496   28.3457   33.5791 O   0  0  0  0  0  0  0  0  0  0  0  0
   33.4934   29.4053   35.6810 O   0  0  0  0  0  0  0  0  0  0  0  0
   33.2486   30.8903   33.4332 C   0  0  1  0  0  0  0  0  0  0  0  0
   32.2583   31.8594   34.0586 C   0  0  0  0  0  0  0  0  0  0  0  0
   32.9714   32.4561   35.1948 N   0  0  0  0  0  0  0  0  0  0  0  0
   32.3923   33.6747   35.8297 C   0  0  2  0  0  0  0  0  0  0  0  0
   31.6260   33.2878   37.1307 C   0  0  0  0  0  0  0  0  0  0  0  0
   30.4617   32.3114   36.9045 C   0  0  0  0  0  0  0  0  0  0  0  0
   31.1422   34.5200   37.9124 C   0  0  0  0  0  0  0  0  0  0  0  0
   31.5834   34.5730   34.8668 C   0  0  0  0  0  0  0  0  0  0  0  0
   34.3523   32.6280   34.7320 C   0  0  0  0  0  0  0  0  0  0  0  0
   34.6046   31.5526   33.6751 C   0  0  0  0  0  0  0  0  0  0  0  0
  1  2  1  0
  2  3  2  0
  2  4  1  0
  4  5  2  0
  5  6  1  0
  6  7  2  0
  7  8  1  0
  8  9  2  0
  9 10  1  0
 10 11  2  0
 11 12  1  0
 12 13  2  0
 13 14  1  0
  9 15  1  0
 15 16  2  0
 15 17  2  0
 18 15  1  1
 18 19  1  0
 19 20  1  0
 20 21  1  0
 21 22  1  0
 22 23  1  0
 22 24  1  0
 21 25  1  6
 20 26  1  0
 26 27  1  0
 13  4  1  0
 27 18  1  0
 12  7  1  0
M  END
>  <AAScore>  (1) 
-6.826798578011106

>  <RootName>  (1) 
./4ZLY/04_DeltaGEst/trajectory_05/rank_01/lead_0260

$$$$
