confid_9
     RDKit          3D

 28 31  0  0  0  0  0  0  0  0999 V2000
   24.5500   26.3900   36.2500 N   0  0  0  0  0  0  0  0  0  0  0  0
   25.6000   26.1300   35.4000 C   0  0  0  0  0  0  0  0  0  0  0  0
   25.4300   25.4300   34.4200 O   0  0  0  0  0  0  0  0  0  0  0  0
   26.9800   26.6300   35.7100 C   0  0  0  0  0  0  0  0  0  0  0  0
   27.3200   26.8200   36.9800 N   0  0  0  0  0  0  0  0  0  0  0  0
   28.4700   27.4000   37.3100 N   0  0  0  0  0  0  0  0  0  0  0  0
   29.4000   27.6300   36.3700 C   0  0  0  0  0  0  0  0  0  0  0  0
   30.6600   28.0500   36.8000 C   0  0  0  0  0  0  0  0  0  0  0  0
   31.5700   28.3600   35.7800 C   0  0  0  0  0  0  0  0  0  0  0  0
   31.3700   28.1000   34.4300 C   0  0  0  0  0  0  0  0  0  0  0  0
   30.1200   27.5900   34.0500 C   0  0  0  0  0  0  0  0  0  0  0  0
   29.1500   27.3400   35.0300 C   0  0  0  0  0  0  0  0  0  0  0  0
   27.8800   26.8900   34.6600 C   0  0  0  0  0  0  0  0  0  0  0  0
   27.4800   26.6100   33.3700 N   0  0  0  0  0  0  0  0  0  0  0  0
   30.9687   28.3119   38.1821 N   0  0  0  0  0  0  0  0  0  0  0  0
   32.1747   27.7142   38.7826 C   0  0  0  0  0  0  0  0  0  0  0  0
   31.8527   27.0555   40.1387 C   0  0  0  0  0  0  0  0  0  0  0  0
   30.9652   27.9474   40.9626 C   0  0  0  0  0  0  0  0  0  0  0  0
   30.1540   28.8908   40.3926 C   0  0  0  0  0  0  0  0  0  0  0  0
   30.1445   29.1429   38.9794 N   0  0  0  0  0  0  0  0  0  0  0  0
   29.4153   30.2716   38.3959 C   0  0  0  0  0  0  0  0  0  0  0  0
   29.3614   29.3758   41.4213 C   0  0  0  0  0  0  0  0  0  0  0  0
   28.2606   30.3842   41.3530 C   0  0  0  0  0  0  0  0  0  0  0  0
   29.6992   28.7304   42.5581 N   0  0  0  0  0  0  0  0  0  0  0  0
   30.6600   27.8562   42.2807 N   0  0  0  0  0  0  0  0  0  0  0  0
   31.2436   26.9899   43.3157 C   0  0  0  0  0  0  0  0  0  0  0  0
   32.6671   27.4329   43.6640 C   0  0  0  0  0  0  0  0  0  0  0  0
   31.1780   25.5071   42.9321 C   0  0  0  0  0  0  0  0  0  0  0  0
  1  2  1  0
  2  3  2  0
  2  4  1  0
  4  5  2  0
  5  6  1  0
  6  7  2  0
  7  8  1  0
  8  9  2  0
  9 10  1  0
 10 11  2  0
 11 12  1  0
 12 13  2  0
 13 14  1  0
  8 15  1  0
 15 16  1  0
 16 17  1  0
 17 18  1  0
 18 19  2  0
 19 20  1  0
 20 21  1  0
 19 22  1  0
 22 23  1  0
 22 24  2  0
 24 25  1  0
 25 26  1  0
 26 27  1  0
 26 28  1  0
 13  4  1  0
 20 15  1  0
 12  7  1  0
 25 18  1  0
M  END
>  <AAScore>  (1) 
7.991252262931119

>  <RootName>  (1) 
./4ZLY/04_DeltaGEst/trajectory_01/rank_01/lead_0149

$$$$
