confid_17
     RDKit          3D

 30 34  0  0  0  0  0  0  0  0999 V2000
   24.5500   26.3900   36.2500 N   0  0  0  0  0  0  0  0  0  0  0  0
   25.6000   26.1300   35.4000 C   0  0  0  0  0  0  0  0  0  0  0  0
   25.4300   25.4300   34.4200 O   0  0  0  0  0  0  0  0  0  0  0  0
   26.9800   26.6300   35.7100 C   0  0  0  0  0  0  0  0  0  0  0  0
   27.3200   26.8200   36.9800 N   0  0  0  0  0  0  0  0  0  0  0  0
   28.4700   27.4000   37.3100 N   0  0  0  0  0  0  0  0  0  0  0  0
   29.4000   27.6300   36.3700 C   0  0  0  0  0  0  0  0  0  0  0  0
   30.6600   28.0500   36.8000 C   0  0  0  0  0  0  0  0  0  0  0  0
   31.5700   28.3600   35.7800 C   0  0  0  0  0  0  0  0  0  0  0  0
   31.3700   28.1000   34.4300 C   0  0  0  0  0  0  0  0  0  0  0  0
   30.1200   27.5900   34.0500 C   0  0  0  0  0  0  0  0  0  0  0  0
   29.1500   27.3400   35.0300 C   0  0  0  0  0  0  0  0  0  0  0  0
   27.8800   26.8900   34.6600 C   0  0  0  0  0  0  0  0  0  0  0  0
   27.4800   26.6100   33.3700 N   0  0  0  0  0  0  0  0  0  0  0  0
   23.2621   25.6830   36.1695 C   0  0  0  0  0  0  0  0  0  0  0  0
   23.4113   24.2184   36.6266 C   0  0  0  0  0  0  0  0  0  0  0  0
   23.7025   24.1284   38.1266 C   0  0  0  0  0  0  0  0  0  0  0  0
   22.6814   24.8675   38.8772 N   0  0  0  0  0  0  0  0  0  0  0  0
   22.0435   24.2907   40.0311 C   0  0  0  0  0  0  0  0  0  0  0  0
   20.8183   24.5069   40.2324 O   0  0  0  0  0  0  0  0  0  0  0  0
   22.8052   23.4731   41.0004 C   0  0  0  0  0  0  0  0  0  0  0  0
   24.1545   23.5921   41.2696 C   0  0  0  0  0  0  0  0  0  0  0  0
   24.3881   22.6881   42.2870 C   0  0  0  0  0  0  0  0  0  0  0  0
   23.2402   22.0620   42.6106 N   0  0  0  0  0  0  0  0  0  0  0  0
   22.2869   22.5330   41.8215 N   0  0  0  0  0  0  0  0  0  0  0  0
   20.8908   22.1042   41.9019 C   0  0  0  0  0  0  0  0  0  0  0  0
   20.7066   20.5948   41.9569 C   0  0  0  0  0  0  0  0  0  0  0  0
   20.4143   21.3490   40.6706 C   0  0  0  0  0  0  0  0  0  0  0  0
   22.4252   26.2663   38.5166 C   0  0  0  0  0  0  0  0  0  0  0  0
   22.1791   26.3965   37.0065 C   0  0  0  0  0  0  0  0  0  0  0  0
  1  2  1  0
  2  3  2  0
  2  4  1  0
  4  5  2  0
  5  6  1  0
  6  7  2  0
  7  8  1  0
  8  9  2  0
  9 10  1  0
 10 11  2  0
 11 12  1  0
 12 13  2  0
 13 14  1  0
  1 15  1  0
 15 16  1  0
 16 17  1  0
 17 18  1  0
 18 19  1  0
 19 20  2  0
 19 21  1  0
 21 22  2  0
 22 23  1  0
 23 24  2  0
 24 25  1  0
 25 26  1  0
 26 27  1  0
 27 28  1  0
 18 29  1  0
 29 30  1  0
 13  4  1  0
 30 15  1  0
 12  7  1  0
 25 21  1  0
 28 26  1  0
M  END
>  <AAScore>  (1) 
2251.131442502808

>  <RootName>  (1) 
./4ZLY/04_DeltaGEst/trajectory_01/rank_00/lead_0487

$$$$
