confid_2
     RDKit          3D

 26 29  0  0  0  0  0  0  0  0999 V2000
   24.5500   26.3900   36.2500 N   0  0  0  0  0  0  0  0  0  0  0  0
   25.6000   26.1300   35.4000 C   0  0  0  0  0  0  0  0  0  0  0  0
   25.4300   25.4300   34.4200 O   0  0  0  0  0  0  0  0  0  0  0  0
   26.9800   26.6300   35.7100 C   0  0  0  0  0  0  0  0  0  0  0  0
   27.3200   26.8200   36.9800 N   0  0  0  0  0  0  0  0  0  0  0  0
   28.4700   27.4000   37.3100 N   0  0  0  0  0  0  0  0  0  0  0  0
   29.4000   27.6300   36.3700 C   0  0  0  0  0  0  0  0  0  0  0  0
   30.6600   28.0500   36.8000 C   0  0  0  0  0  0  0  0  0  0  0  0
   31.5700   28.3600   35.7800 C   0  0  0  0  0  0  0  0  0  0  0  0
   31.3700   28.1000   34.4300 C   0  0  0  0  0  0  0  0  0  0  0  0
   30.1200   27.5900   34.0500 C   0  0  0  0  0  0  0  0  0  0  0  0
   29.1500   27.3400   35.0300 C   0  0  0  0  0  0  0  0  0  0  0  0
   27.8800   26.8900   34.6600 C   0  0  0  0  0  0  0  0  0  0  0  0
   27.4800   26.6100   33.3700 N   0  0  0  0  0  0  0  0  0  0  0  0
   30.9824   28.3221   38.2186 C   0  0  0  0  0  0  0  0  0  0  0  0
   31.2133   27.2182   39.0728 C   0  0  0  0  0  0  0  0  0  0  0  0
   31.5525   27.2834   40.4482 C   0  0  0  0  0  0  0  0  0  0  0  0
   31.7005   25.9844   41.2071 C   0  0  0  0  0  0  0  0  0  0  0  0
   32.4948   26.1609   42.4408 N   0  0  0  0  0  0  0  0  0  0  0  0
   32.5561   24.8964   43.1886 C   0  0  0  0  0  0  0  0  0  0  0  0
   31.8993   27.2149   43.2809 C   0  0  0  0  0  0  0  0  0  0  0  0
   32.0610   28.5671   42.5914 C   0  0  0  0  0  0  0  0  0  0  0  0
   31.6568   28.5018   41.1457 C   0  0  0  0  0  0  0  0  0  0  0  0
   31.4171   29.9332   40.2843 S   0  0  0  0  0  0  0  0  0  0  0  0
   31.0437   29.6503   38.6658 C   0  0  0  0  0  0  0  0  0  0  0  0
   30.8109   30.6202   37.8942 O   0  0  0  0  0  0  0  0  0  0  0  0
  1  2  1  0
  2  3  2  0
  2  4  1  0
  4  5  2  0
  5  6  1  0
  6  7  2  0
  7  8  1  0
  8  9  2  0
  9 10  1  0
 10 11  2  0
 11 12  1  0
 12 13  2  0
 13 14  1  0
  8 15  1  0
 15 16  2  0
 16 17  1  0
 17 18  1  0
 18 19  1  0
 19 20  1  0
 19 21  1  0
 21 22  1  0
 22 23  1  0
 23 24  1  0
 24 25  1  0
 25 26  2  0
 13  4  1  0
 25 15  1  0
 12  7  1  0
 23 17  2  0
M  END
>  <AAScore>  (1) 
11.56473956068873

>  <RootName>  (1) 
./4ZLY/04_DeltaGEst/trajectory_01/rank_01/lead_0382

$$$$
