confid_10
     RDKit          3D

 27 30  0  0  0  0  0  0  0  0999 V2000
   24.6900   26.1200   35.5300 N   0  0  0  0  0  0  0  0  0  0  0  0
   25.6600   25.6700   34.6600 C   0  0  0  0  0  0  0  0  0  0  0  0
   25.2400   25.0100   33.7200 O   0  0  0  0  0  0  0  0  0  0  0  0
   27.0300   26.2200   34.8800 C   0  0  0  0  0  0  0  0  0  0  0  0
   27.3500   26.7300   36.0700 N   0  0  0  0  0  0  0  0  0  0  0  0
   28.5700   27.1800   36.3300 N   0  0  0  0  0  0  0  0  0  0  0  0
   29.5300   27.1100   35.3900 C   0  0  0  0  0  0  0  0  0  0  0  0
   30.8300   27.5700   35.6500 C   0  0  0  0  0  0  0  0  0  0  0  0
   31.8500   27.5400   34.6900 C   0  0  0  0  0  0  0  0  0  0  0  0
   31.5100   27.1200   33.4000 C   0  0  0  0  0  0  0  0  0  0  0  0
   30.2200   26.6300   33.1100 C   0  0  0  0  0  0  0  0  0  0  0  0
   29.2400   26.6600   34.1000 C   0  0  0  0  0  0  0  0  0  0  0  0
   27.9300   26.2600   33.8100 C   0  0  0  0  0  0  0  0  0  0  0  0
   27.5200   25.7100   32.6100 N   0  0  0  0  0  0  0  0  0  0  0  0
   31.1501   28.0590   36.9618 N   0  0  0  0  0  0  0  0  0  0  0  0
   31.2476   27.1277   38.0887 C   0  0  0  0  0  0  0  0  0  0  0  0
   30.5813   27.7416   39.3218 C   0  0  0  0  0  0  0  0  0  0  0  0
   31.0622   29.1124   39.5730 N   0  0  0  0  0  0  0  0  0  0  0  0
   30.9431   29.6930   40.8905 C   0  0  0  0  0  0  0  0  0  0  0  0
   29.8139   29.4651   41.7051 C   0  0  0  0  0  0  0  0  0  0  0  0
   28.7640   28.7227   41.2757 F   0  0  0  0  0  0  0  0  0  0  0  0
   29.7544   30.0481   42.9734 C   0  0  0  0  0  0  0  0  0  0  0  0
   30.8018   30.8509   43.4233 C   0  0  0  0  0  0  0  0  0  0  0  0
   31.9000   31.0663   42.5918 C   0  0  0  0  0  0  0  0  0  0  0  0
   31.9444   30.4913   41.3612 N   0  0  0  0  0  0  0  0  0  0  0  0
   31.9060   29.7889   38.5745 C   0  0  0  0  0  0  0  0  0  0  0  0
   31.4231   29.4887   37.1499 C   0  0  0  0  0  0  0  0  0  0  0  0
  1  2  1  0
  2  3  2  0
  2  4  1  0
  4  5  2  0
  5  6  1  0
  6  7  2  0
  7  8  1  0
  8  9  2  0
  9 10  1  0
 10 11  2  0
 11 12  1  0
 12 13  2  0
 13 14  1  0
  8 15  1  0
 15 16  1  0
 16 17  1  0
 17 18  1  0
 18 19  1  0
 19 20  2  0
 20 21  1  0
 20 22  1  0
 22 23  2  0
 23 24  1  0
 24 25  2  0
 18 26  1  0
 26 27  1  0
 13  4  1  0
 27 15  1  0
 12  7  1  0
 25 19  1  0
M  END
>  <AAScore>  (1) 
1.9469931684107569

>  <RootName>  (1) 
./4ZLY/04_DeltaGEst/trajectory_02/rank_01/lead_0068

$$$$
