confid_3
     RDKit          3D

 27 30  0  0  0  0  0  0  0  0999 V2000
   24.6900   26.1200   35.5300 N   0  0  0  0  0  0  0  0  0  0  0  0
   25.6600   25.6700   34.6600 C   0  0  0  0  0  0  0  0  0  0  0  0
   25.2400   25.0100   33.7200 O   0  0  0  0  0  0  0  0  0  0  0  0
   27.0300   26.2200   34.8800 C   0  0  0  0  0  0  0  0  0  0  0  0
   27.3500   26.7300   36.0700 N   0  0  0  0  0  0  0  0  0  0  0  0
   28.5700   27.1800   36.3300 N   0  0  0  0  0  0  0  0  0  0  0  0
   29.5300   27.1100   35.3900 C   0  0  0  0  0  0  0  0  0  0  0  0
   30.8300   27.5700   35.6500 C   0  0  0  0  0  0  0  0  0  0  0  0
   31.8500   27.5400   34.6900 C   0  0  0  0  0  0  0  0  0  0  0  0
   31.5100   27.1200   33.4000 C   0  0  0  0  0  0  0  0  0  0  0  0
   30.2200   26.6300   33.1100 C   0  0  0  0  0  0  0  0  0  0  0  0
   29.2400   26.6600   34.1000 C   0  0  0  0  0  0  0  0  0  0  0  0
   27.9300   26.2600   33.8100 C   0  0  0  0  0  0  0  0  0  0  0  0
   27.5200   25.7100   32.6100 N   0  0  0  0  0  0  0  0  0  0  0  0
   31.1477   28.0691   36.9621 N   0  0  0  0  0  0  0  0  0  0  0  0
   32.1002   27.3157   37.7850 C   0  0  0  0  0  0  0  0  0  0  0  0
   31.6885   27.3872   39.2517 C   0  0  0  0  0  0  0  0  0  0  0  0
   31.5658   28.7916   39.6597 N   0  0  0  0  0  0  0  0  0  0  0  0
   32.3113   29.2784   40.8261 C   0  0  0  0  0  0  0  0  0  0  0  0
   30.8195   29.6895   38.8025 C   0  0  0  0  0  0  0  0  0  0  0  0
   30.2856   30.9096   39.2774 C   0  0  0  0  0  0  0  0  0  0  0  0
   30.4001   31.2772   40.5771 F   0  0  0  0  0  0  0  0  0  0  0  0
   29.5921   31.7587   38.4124 C   0  0  0  0  0  0  0  0  0  0  0  0
   29.4190   31.4132   37.0739 C   0  0  0  0  0  0  0  0  0  0  0  0
   29.9284   30.2083   36.5912 C   0  0  0  0  0  0  0  0  0  0  0  0
   30.6214   29.3293   37.4473 C   0  0  0  0  0  0  0  0  0  0  0  0
   28.7499   32.2477   36.2406 F   0  0  0  0  0  0  0  0  0  0  0  0
  1  2  1  0
  2  3  2  0
  2  4  1  0
  4  5  2  0
  5  6  1  0
  6  7  2  0
  7  8  1  0
  8  9  2  0
  9 10  1  0
 10 11  2  0
 11 12  1  0
 12 13  2  0
 13 14  1  0
  8 15  1  0
 15 16  1  0
 16 17  1  0
 17 18  1  0
 18 19  1  0
 18 20  1  0
 20 21  2  0
 21 22  1  0
 21 23  1  0
 23 24  2  0
 24 25  1  0
 25 26  2  0
 24 27  1  0
 13  4  1  0
 26 15  1  0
 12  7  1  0
 26 20  1  0
M  END
>  <AAScore>  (1) 
11.693026520362489

>  <RootName>  (1) 
./4ZLY/04_DeltaGEst/trajectory_02/rank_01/lead_0062

$$$$
