confid_9
     RDKit          3D

 28 31  0  0  0  0  0  0  0  0999 V2000
   24.2000   26.2400   35.6900 N   0  0  0  0  0  0  0  0  0  0  0  0
   24.8500   26.2800   34.4800 C   0  0  0  0  0  0  0  0  0  0  0  0
   24.3100   25.7400   33.5400 O   0  0  0  0  0  0  0  0  0  0  0  0
   26.1800   26.9700   34.4700 C   0  0  0  0  0  0  0  0  0  0  0  0
   26.6500   27.6000   35.5500 N   0  0  0  0  0  0  0  0  0  0  0  0
   27.7900   28.2700   35.6200 N   0  0  0  0  0  0  0  0  0  0  0  0
   28.5400   28.3000   34.5100 C   0  0  0  0  0  0  0  0  0  0  0  0
   29.7700   28.9400   34.5600 C   0  0  0  0  0  0  0  0  0  0  0  0
   30.7000   28.8900   33.5000 C   0  0  0  0  0  0  0  0  0  0  0  0
   30.3700   28.1400   32.3700 C   0  0  0  0  0  0  0  0  0  0  0  0
   29.1200   27.5200   32.2800 C   0  0  0  0  0  0  0  0  0  0  0  0
   28.2100   27.6100   33.3300 C   0  0  0  0  0  0  0  0  0  0  0  0
   26.9700   26.9700   33.3100 C   0  0  0  0  0  0  0  0  0  0  0  0
   26.5300   26.2400   32.2200 N   0  0  0  0  0  0  0  0  0  0  0  0
   22.8017   25.9192   35.8481 C   0  0  0  0  0  0  0  0  0  0  0  0
   21.9423   25.7545   34.8249 N   0  0  0  0  0  0  0  0  0  0  0  0
   20.7487   25.5354   35.4187 C   0  0  0  0  0  0  0  0  0  0  0  0
   19.5021   25.3538   34.6002 C   0  0  0  0  0  0  0  0  0  0  0  0
   18.8282   26.7083   34.3029 C   0  0  0  0  0  0  0  0  0  0  0  0
   17.7931   27.0658   35.3029 N   0  0  0  0  0  0  0  0  0  0  0  0
   18.3826   27.2782   36.6493 C   0  0  0  0  0  0  0  0  0  0  0  0
   18.3711   25.9534   37.4380 C   0  0  0  0  0  0  0  0  0  0  0  0
   19.7597   25.3812   37.7858 C   0  0  0  0  0  0  0  0  0  0  0  0
   20.8122   25.6062   36.7767 N   0  0  0  0  0  0  0  0  0  0  0  0
   22.1249   25.8020   37.0474 C   0  0  0  0  0  0  0  0  0  0  0  0
   22.7200   25.9176   38.4236 C   0  0  0  0  0  0  0  0  0  0  0  0
   17.0252   28.2540   34.8538 C   0  0  0  0  0  0  0  0  0  0  0  0
   15.9392   27.8603   33.8499 C   0  0  0  0  0  0  0  0  0  0  0  0
  1  2  1  0
  2  3  2  0
  2  4  1  0
  4  5  2  0
  5  6  1  0
  6  7  2  0
  7  8  1  0
  8  9  2  0
  9 10  1  0
 10 11  2  0
 11 12  1  0
 12 13  2  0
 13 14  1  0
  1 15  1  0
 15 16  1  0
 16 17  2  0
 17 18  1  0
 18 19  1  0
 19 20  1  0
 20 21  1  0
 21 22  1  0
 22 23  1  0
 23 24  1  0
 24 25  1  0
 25 26  1  0
 20 27  1  0
 27 28  1  0
 13  4  1  0
 25 15  2  0
 12  7  1  0
 24 17  1  0
M  END
>  <AAScore>  (1) 
858.2186742319805

>  <RootName>  (1) 
./4ZLY/04_DeltaGEst/trajectory_04/rank_00/lead_0001

$$$$
