confid_3
     RDKit          3D

 29 32  0  0  0  0  0  0  0  0999 V2000
   24.5500   26.3900   36.2500 N   0  0  0  0  0  0  0  0  0  0  0  0
   25.6000   26.1300   35.4000 C   0  0  0  0  0  0  0  0  0  0  0  0
   25.4300   25.4300   34.4200 O   0  0  0  0  0  0  0  0  0  0  0  0
   26.9800   26.6300   35.7100 C   0  0  0  0  0  0  0  0  0  0  0  0
   27.3200   26.8200   36.9800 N   0  0  0  0  0  0  0  0  0  0  0  0
   28.4700   27.4000   37.3100 N   0  0  0  0  0  0  0  0  0  0  0  0
   29.4000   27.6300   36.3700 C   0  0  0  0  0  0  0  0  0  0  0  0
   30.6600   28.0500   36.8000 C   0  0  0  0  0  0  0  0  0  0  0  0
   31.5700   28.3600   35.7800 C   0  0  0  0  0  0  0  0  0  0  0  0
   31.3700   28.1000   34.4300 C   0  0  0  0  0  0  0  0  0  0  0  0
   30.1200   27.5900   34.0500 C   0  0  0  0  0  0  0  0  0  0  0  0
   29.1500   27.3400   35.0300 C   0  0  0  0  0  0  0  0  0  0  0  0
   27.8800   26.8900   34.6600 C   0  0  0  0  0  0  0  0  0  0  0  0
   27.4800   26.6100   33.3700 N   0  0  0  0  0  0  0  0  0  0  0  0
   30.9509   28.3225   38.1760 N   0  0  0  0  0  0  0  0  0  0  0  0
   30.6191   29.6417   38.7292 C   0  0  0  0  0  0  0  0  0  0  0  0
   30.7630   29.6561   40.2550 C   0  0  0  0  0  0  0  0  0  0  0  0
   30.1916   28.4275   40.8175 N   0  0  0  0  0  0  0  0  0  0  0  0
   30.5492   27.1123   40.2688 C   0  0  0  0  0  0  0  0  0  0  0  0
   31.4536   27.2499   39.0394 C   0  0  0  0  0  0  0  0  0  0  0  0
   29.1679   28.5081   41.8172 C   0  0  0  0  0  0  0  0  0  0  0  0
   27.8435   28.7057   41.4122 C   0  0  0  0  0  0  0  0  0  0  0  0
   26.8187   28.7476   42.3539 C   0  0  0  0  0  0  0  0  0  0  0  0
   27.1039   28.5796   43.7086 C   0  0  0  0  0  0  0  0  0  0  0  0
   28.4288   28.3738   44.1397 C   0  0  0  0  0  0  0  0  0  0  0  0
   29.4735   28.3628   43.1892 C   0  0  0  0  0  0  0  0  0  0  0  0
   30.8908   28.1088   43.6347 C   0  0  0  0  0  0  0  0  0  0  0  0
   28.7370   28.1670   45.4953 O   0  0  0  0  0  0  0  0  0  0  0  0
   27.7732   28.0738   46.5398 C   0  0  0  0  0  0  0  0  0  0  0  0
  1  2  1  0
  2  3  2  0
  2  4  1  0
  4  5  2  0
  5  6  1  0
  6  7  2  0
  7  8  1  0
  8  9  2  0
  9 10  1  0
 10 11  2  0
 11 12  1  0
 12 13  2  0
 13 14  1  0
  8 15  1  0
 15 16  1  0
 16 17  1  0
 17 18  1  0
 18 19  1  0
 19 20  1  0
 18 21  1  0
 21 22  2  0
 22 23  1  0
 23 24  2  0
 24 25  1  0
 25 26  2  0
 26 27  1  0
 25 28  1  0
 28 29  1  0
 13  4  1  0
 20 15  1  0
 26 21  1  0
 12  7  1  0
M  END
>  <AAScore>  (1) 
171.06632799542595

>  <RootName>  (1) 
./4ZLY/04_DeltaGEst/trajectory_01/rank_01/lead_0358

$$$$
