confid_10
     RDKit          3D

 28 33  0  0  0  0  0  0  0  0999 V2000
   24.4800   26.1000   36.1300 N   0  0  0  0  0  0  0  0  0  0  0  0
   25.2500   26.2500   34.9900 C   0  0  0  0  0  0  0  0  0  0  0  0
   24.7400   25.7600   33.9900 O   0  0  0  0  0  0  0  0  0  0  0  0
   26.5900   26.8900   34.9600 C   0  0  0  0  0  0  0  0  0  0  0  0
   27.0600   27.2400   36.1600 N   0  0  0  0  0  0  0  0  0  0  0  0
   28.3000   27.7100   36.2400 N   0  0  0  0  0  0  0  0  0  0  0  0
   29.0500   27.9600   35.1500 C   0  0  0  0  0  0  0  0  0  0  0  0
   30.3400   28.4900   35.2600 C   0  0  0  0  0  0  0  0  0  0  0  0
   31.1100   28.8200   34.1400 C   0  0  0  0  0  0  0  0  0  0  0  0
   30.5200   28.6700   32.8800 C   0  0  0  0  0  0  0  0  0  0  0  0
   29.2900   28.0200   32.7700 C   0  0  0  0  0  0  0  0  0  0  0  0
   28.5200   27.7100   33.8900 C   0  0  0  0  0  0  0  0  0  0  0  0
   27.2700   27.0800   33.7600 C   0  0  0  0  0  0  0  0  0  0  0  0
   26.7500   26.8800   32.4900 N   0  0  0  0  0  0  0  0  0  0  0  0
   23.1054   25.6705   36.1727 C   0  0  0  0  0  0  0  0  0  0  0  0
   22.3361   25.8961   35.1440 N   0  0  0  0  0  0  0  0  0  0  0  0
   20.9494   25.6015   34.9375 C   0  0  0  0  0  0  0  0  0  0  0  0
   20.0196   25.8858   35.8400 C   0  0  0  0  0  0  0  0  0  0  0  0
   18.5336   26.0903   35.8722 C   0  0  0  0  0  0  0  0  0  0  0  0
   18.4974   26.5309   37.1910 O   0  0  0  0  0  0  0  0  0  0  0  0
   19.8722   26.3200   37.2680 C   0  0  1  0  0  0  0  0  0  0  0  0
   20.1663   25.1915   38.2587 C   0  0  0  0  0  0  0  0  0  0  0  0
   21.5697   24.6879   38.1914 C   0  0  0  0  0  0  0  0  0  0  0  0
   22.6808   24.8960   37.3575 C   0  0  0  0  0  0  0  0  0  0  0  0
   23.3509   24.0153   38.2264 C   0  0  0  0  0  0  0  0  0  0  0  0
   24.7728   23.5368   38.4564 C   0  0  0  0  0  0  0  0  0  0  0  0
   23.8591   22.7549   37.5253 C   0  0  0  0  0  0  0  0  0  0  0  0
   22.2965   23.7373   39.0670 N   0  0  0  0  0  0  0  0  0  0  0  0
  1  2  1  0
  2  3  2  0
  2  4  1  0
  4  5  2  0
  5  6  1  0
  6  7  2  0
  7  8  1  0
  8  9  2  0
  9 10  1  0
 10 11  2  0
 11 12  1  0
 12 13  2  0
 13 14  1  0
  1 15  1  0
 15 16  2  0
 16 17  1  0
 17 18  2  0
 18 19  1  0
 19 20  1  0
 20 21  1  0
 21 22  1  1
 22 23  1  0
 23 24  2  0
 24 25  1  0
 25 26  1  0
 26 27  1  0
 25 28  1  0
 13  4  1  0
 24 15  1  0
 27 25  1  0
 12  7  1  0
 21 18  1  0
 28 23  1  0
M  END
>  <AAScore>  (1) 
652.800522129859

>  <RootName>  (1) 
./4ZLY/04_DeltaGEst/trajectory_00/rank_01/lead_0195

$$$$
