confid_17
     RDKit          3D

 28 31  0  0  0  0  0  0  0  0999 V2000
   24.5700   26.8800   35.5900 N   0  0  0  0  0  0  0  0  0  0  0  0
   25.5000   26.4000   34.6900 C   0  0  0  0  0  0  0  0  0  0  0  0
   25.1700   25.5200   33.9100 O   0  0  0  0  0  0  0  0  0  0  0  0
   26.8400   27.0200   34.7400 C   0  0  0  0  0  0  0  0  0  0  0  0
   27.3800   27.2800   35.9400 N   0  0  0  0  0  0  0  0  0  0  0  0
   28.6200   27.7400   36.0300 N   0  0  0  0  0  0  0  0  0  0  0  0
   29.3800   28.0000   34.9600 C   0  0  0  0  0  0  0  0  0  0  0  0
   30.6700   28.5000   35.1300 C   0  0  0  0  0  0  0  0  0  0  0  0
   31.5400   28.6100   34.0300 C   0  0  0  0  0  0  0  0  0  0  0  0
   31.0900   28.2200   32.7700 C   0  0  0  0  0  0  0  0  0  0  0  0
   29.8000   27.7000   32.6000 C   0  0  0  0  0  0  0  0  0  0  0  0
   28.9600   27.5500   33.7100 C   0  0  0  0  0  0  0  0  0  0  0  0
   27.6600   27.0300   33.5900 C   0  0  0  0  0  0  0  0  0  0  0  0
   27.1600   26.7400   32.3400 N   0  0  0  0  0  0  0  0  0  0  0  0
   33.1597   29.2729   34.2247 S   0  0  0  0  0  6  0  0  0  0  0  0
   34.1245   28.4601   33.4072 O   0  0  0  0  0  0  0  0  0  0  0  0
   33.5728   29.1992   35.6688 O   0  0  0  0  0  0  0  0  0  0  0  0
   33.1861   30.9788   33.6707 C   0  0  1  0  0  0  0  0  0  0  0  0
   32.2442   31.8425   34.5214 C   0  0  0  0  0  0  0  0  0  0  0  0
   32.1603   33.2164   33.9794 N   0  0  0  0  0  0  0  0  0  0  0  0
   33.4658   33.8345   33.6017 C   0  0  2  0  0  0  0  0  0  0  0  0
   33.4845   34.0421   32.0722 C   0  0  0  0  0  0  0  0  0  0  0  0
   34.6539   34.9328   31.6176 C   0  0  0  0  0  0  0  0  0  0  0  0
   34.3924   35.7431   30.3561 C   0  0  0  0  0  0  0  0  0  0  0  0
   34.4148   36.4320   31.7119 C   0  0  0  0  0  0  0  0  0  0  0  0
   34.6827   33.0183   34.1044 C   0  0  0  0  0  0  0  0  0  0  0  0
   34.6245   31.5418   33.6818 C   0  0  0  0  0  0  0  0  0  0  0  0
   31.3902   34.0768   34.8913 C   0  0  0  0  0  0  0  0  0  0  0  0
  1  2  1  0
  2  3  2  0
  2  4  1  0
  4  5  2  0
  5  6  1  0
  6  7  2  0
  7  8  1  0
  8  9  2  0
  9 10  1  0
 10 11  2  0
 11 12  1  0
 12 13  2  0
 13 14  1  0
  9 15  1  0
 15 16  2  0
 15 17  2  0
 18 15  1  1
 18 19  1  0
 19 20  1  0
 20 21  1  0
 21 22  1  6
 22 23  1  0
 23 24  1  0
 24 25  1  0
 21 26  1  0
 26 27  1  0
 20 28  1  0
 13  4  1  0
 27 18  1  0
 12  7  1  0
 25 23  1  0
M  END
>  <AAScore>  (1) 
-2.846314993402643

>  <RootName>  (1) 
./4ZLY/04_DeltaGEst/trajectory_05/rank_01/lead_0490

$$$$
