confid_4
     RDKit          3D

 28 30  0  0  0  0  0  0  0  0999 V2000
   24.5700   26.8800   35.5900 N   0  0  0  0  0  0  0  0  0  0  0  0
   25.5000   26.4000   34.6900 C   0  0  0  0  0  0  0  0  0  0  0  0
   25.1700   25.5200   33.9100 O   0  0  0  0  0  0  0  0  0  0  0  0
   26.8400   27.0200   34.7400 C   0  0  0  0  0  0  0  0  0  0  0  0
   27.3800   27.2800   35.9400 N   0  0  0  0  0  0  0  0  0  0  0  0
   28.6200   27.7400   36.0300 N   0  0  0  0  0  0  0  0  0  0  0  0
   29.3800   28.0000   34.9600 C   0  0  0  0  0  0  0  0  0  0  0  0
   30.6700   28.5000   35.1300 C   0  0  0  0  0  0  0  0  0  0  0  0
   31.5400   28.6100   34.0300 C   0  0  0  0  0  0  0  0  0  0  0  0
   31.0900   28.2200   32.7700 C   0  0  0  0  0  0  0  0  0  0  0  0
   29.8000   27.7000   32.6000 C   0  0  0  0  0  0  0  0  0  0  0  0
   28.9600   27.5500   33.7100 C   0  0  0  0  0  0  0  0  0  0  0  0
   27.6600   27.0300   33.5900 C   0  0  0  0  0  0  0  0  0  0  0  0
   27.1600   26.7400   32.3400 N   0  0  0  0  0  0  0  0  0  0  0  0
   33.1572   29.2832   34.2353 S   0  0  0  0  0  6  0  0  0  0  0  0
   33.6736   28.9262   35.6013 O   0  0  0  0  0  0  0  0  0  0  0  0
   34.0791   28.6794   33.2128 O   0  0  0  0  0  0  0  0  0  0  0  0
   33.1609   31.0751   34.0483 C   0  0  2  0  0  0  0  0  0  0  0  0
   32.2496   31.7558   35.0846 C   0  0  2  0  0  0  0  0  0  0  0  0
   30.9523   32.0649   34.3414 C   0  0  0  0  0  0  0  0  0  0  0  0
   31.3483   32.2971   32.8847 C   0  0  1  0  0  0  0  0  0  0  0  0
   32.6444   31.5011   32.6658 C   0  0  0  0  0  0  0  0  0  0  0  0
   30.2122   31.9016   31.9181 C   0  0  0  0  0  0  0  0  0  0  0  0
   30.5061   32.3295   30.4718 C   0  0  0  0  0  0  0  0  0  0  0  0
   29.4596   31.8207   29.5577 N   0  0  0  0  0  0  0  0  0  0  0  0
   29.9957   31.6821   28.1937 C   0  0  0  0  0  0  0  0  0  0  0  0
   28.2921   32.7199   29.5340 C   0  0  0  0  0  0  0  0  0  0  0  0
   32.8910   33.0397   35.6334 C   0  0  0  0  0  0  0  0  0  0  0  0
  1  2  1  0
  2  3  2  0
  2  4  1  0
  4  5  2  0
  5  6  1  0
  6  7  2  0
  7  8  1  0
  8  9  2  0
  9 10  1  0
 10 11  2  0
 11 12  1  0
 12 13  2  0
 13 14  1  0
  9 15  1  0
 15 16  2  0
 15 17  2  0
 18 15  1  6
 18 19  1  0
 19 20  1  0
 20 21  1  0
 21 22  1  0
 21 23  1  6
 23 24  1  0
 24 25  1  0
 25 26  1  0
 25 27  1  0
 19 28  1  6
 13  4  1  0
 22 18  1  0
 12  7  1  0
M  END
>  <AAScore>  (1) 
-3.9252876402564616

>  <RootName>  (1) 
./4ZLY/04_DeltaGEst/trajectory_05/rank_01/lead_0209

$$$$
