confid_1
     RDKit          3D

 30 33  0  0  0  0  0  0  0  0999 V2000
   24.2000   26.2400   35.6900 N   0  0  0  0  0  0  0  0  0  0  0  0
   24.8500   26.2800   34.4800 C   0  0  0  0  0  0  0  0  0  0  0  0
   24.3100   25.7400   33.5400 O   0  0  0  0  0  0  0  0  0  0  0  0
   26.1800   26.9700   34.4700 C   0  0  0  0  0  0  0  0  0  0  0  0
   26.6500   27.6000   35.5500 N   0  0  0  0  0  0  0  0  0  0  0  0
   27.7900   28.2700   35.6200 N   0  0  0  0  0  0  0  0  0  0  0  0
   28.5400   28.3000   34.5100 C   0  0  0  0  0  0  0  0  0  0  0  0
   29.7700   28.9400   34.5600 C   0  0  0  0  0  0  0  0  0  0  0  0
   30.7000   28.8900   33.5000 C   0  0  0  0  0  0  0  0  0  0  0  0
   30.3700   28.1400   32.3700 C   0  0  0  0  0  0  0  0  0  0  0  0
   29.1200   27.5200   32.2800 C   0  0  0  0  0  0  0  0  0  0  0  0
   28.2100   27.6100   33.3300 C   0  0  0  0  0  0  0  0  0  0  0  0
   26.9700   26.9700   33.3100 C   0  0  0  0  0  0  0  0  0  0  0  0
   26.5300   26.2400   32.2200 N   0  0  0  0  0  0  0  0  0  0  0  0
   23.1420   25.3062   35.9903 C   0  0  0  0  0  0  0  0  0  0  0  0
   23.1820   24.0676   35.4405 N   0  0  0  0  0  0  0  0  0  0  0  0
   22.2558   23.1197   35.7072 C   0  0  0  0  0  0  0  0  0  0  0  0
   21.2216   23.3591   36.6230 C   0  0  0  0  0  0  0  0  0  0  0  0
   20.1304   22.3037   36.7040 C   0  0  0  0  0  0  0  0  0  0  0  0
   19.7633   21.9850   38.1015 N   0  0  0  0  0  0  0  0  0  0  0  0
   20.4741   20.7864   38.5743 C   0  0  0  0  0  0  0  0  0  0  0  0
   18.2995   21.8449   38.2722 C   0  0  0  0  0  0  0  0  0  0  0  0
   17.6556   23.2056   38.5766 C   0  0  0  0  0  0  0  0  0  0  0  0
   17.9914   24.1876   37.5146 N   0  0  0  0  0  0  0  0  0  0  0  0
   18.7967   25.3225   38.0132 C   0  0  0  0  0  0  0  0  0  0  0  0
   20.2154   24.8984   38.4420 C   0  0  0  0  0  0  0  0  0  0  0  0
   21.1686   24.6304   37.2772 C   0  0  0  0  0  0  0  0  0  0  0  0
   22.0981   25.6409   36.8841 C   0  0  0  0  0  0  0  0  0  0  0  0
   21.9992   27.0578   37.4106 C   0  0  0  0  0  0  0  0  0  0  0  0
   16.7782   24.6811   36.8434 C   0  0  0  0  0  0  0  0  0  0  0  0
  1  2  1  0
  2  3  2  0
  2  4  1  0
  4  5  2  0
  5  6  1  0
  6  7  2  0
  7  8  1  0
  8  9  2  0
  9 10  1  0
 10 11  2  0
 11 12  1  0
 12 13  2  0
 13 14  1  0
  1 15  1  0
 15 16  2  0
 16 17  1  0
 17 18  2  0
 18 19  1  0
 19 20  1  0
 20 21  1  0
 20 22  1  0
 22 23  1  0
 23 24  1  0
 24 25  1  0
 25 26  1  0
 26 27  1  0
 27 28  2  0
 28 29  1  0
 24 30  1  0
 13  4  1  0
 28 15  1  0
 12  7  1  0
 27 18  1  0
M  END
>  <AAScore>  (1) 
431.1959986317656

>  <RootName>  (1) 
./4ZLY/04_DeltaGEst/trajectory_04/rank_00/lead_0235

$$$$
