confid_1
     RDKit          3D

 28 31  0  0  0  0  0  0  0  0999 V2000
   24.2000   26.2400   35.6900 N   0  0  0  0  0  0  0  0  0  0  0  0
   24.8500   26.2800   34.4800 C   0  0  0  0  0  0  0  0  0  0  0  0
   24.3100   25.7400   33.5400 O   0  0  0  0  0  0  0  0  0  0  0  0
   26.1800   26.9700   34.4700 C   0  0  0  0  0  0  0  0  0  0  0  0
   26.6500   27.6000   35.5500 N   0  0  0  0  0  0  0  0  0  0  0  0
   27.7900   28.2700   35.6200 N   0  0  0  0  0  0  0  0  0  0  0  0
   28.5400   28.3000   34.5100 C   0  0  0  0  0  0  0  0  0  0  0  0
   29.7700   28.9400   34.5600 C   0  0  0  0  0  0  0  0  0  0  0  0
   30.7000   28.8900   33.5000 C   0  0  0  0  0  0  0  0  0  0  0  0
   30.3700   28.1400   32.3700 C   0  0  0  0  0  0  0  0  0  0  0  0
   29.1200   27.5200   32.2800 C   0  0  0  0  0  0  0  0  0  0  0  0
   28.2100   27.6100   33.3300 C   0  0  0  0  0  0  0  0  0  0  0  0
   26.9700   26.9700   33.3100 C   0  0  0  0  0  0  0  0  0  0  0  0
   26.5300   26.2400   32.2200 N   0  0  0  0  0  0  0  0  0  0  0  0
   22.8235   25.8614   35.8832 C   0  0  0  0  0  0  0  0  0  0  0  0
   22.0107   25.5805   34.8269 N   0  0  0  0  0  0  0  0  0  0  0  0
   20.7133   25.2247   35.0092 C   0  0  0  0  0  0  0  0  0  0  0  0
   20.1826   25.1523   36.3000 C   0  0  0  0  0  0  0  0  0  0  0  0
   18.7671   24.6699   36.5189 C   0  0  0  0  0  0  0  0  0  0  0  0
   18.2345   25.0417   37.8476 N   0  0  0  0  0  0  0  0  0  0  0  0
   17.7975   26.4554   37.9137 C   0  0  0  0  0  0  0  0  0  0  0  0
   16.3279   26.5907   37.4691 C   0  0  0  0  0  0  0  0  0  0  0  0
   15.3890   25.8276   38.4145 C   0  0  0  0  0  0  0  0  0  0  0  0
   15.9257   28.0669   37.4017 C   0  0  0  0  0  0  0  0  0  0  0  0
   19.1855   24.6826   38.9190 C   0  0  0  0  0  0  0  0  0  0  0  0
   20.5189   25.4372   38.7897 C   0  0  0  0  0  0  0  0  0  0  0  0
   21.0325   25.4359   37.3803 C   0  0  0  0  0  0  0  0  0  0  0  0
   22.3229   25.7954   37.1452 N   0  0  0  0  0  0  0  0  0  0  0  0
  1  2  1  0
  2  3  2  0
  2  4  1  0
  4  5  2  0
  5  6  1  0
  6  7  2  0
  7  8  1  0
  8  9  2  0
  9 10  1  0
 10 11  2  0
 11 12  1  0
 12 13  2  0
 13 14  1  0
  1 15  1  0
 15 16  2  0
 16 17  1  0
 17 18  2  0
 18 19  1  0
 19 20  1  0
 20 21  1  0
 21 22  1  0
 22 23  1  0
 22 24  1  0
 20 25  1  0
 25 26  1  0
 26 27  1  0
 27 28  2  0
 13  4  1  0
 28 15  1  0
 12  7  1  0
 27 18  1  0
M  END
>  <AAScore>  (1) 
1262.502995433923

>  <RootName>  (1) 
./4ZLY/04_DeltaGEst/trajectory_04/rank_00/lead_0282

$$$$
