confid_6
     RDKit          3D

 28 31  0  0  0  0  0  0  0  0999 V2000
   24.5700   26.8800   35.5900 N   0  0  0  0  0  0  0  0  0  0  0  0
   25.5000   26.4000   34.6900 C   0  0  0  0  0  0  0  0  0  0  0  0
   25.1700   25.5200   33.9100 O   0  0  0  0  0  0  0  0  0  0  0  0
   26.8400   27.0200   34.7400 C   0  0  0  0  0  0  0  0  0  0  0  0
   27.3800   27.2800   35.9400 N   0  0  0  0  0  0  0  0  0  0  0  0
   28.6200   27.7400   36.0300 N   0  0  0  0  0  0  0  0  0  0  0  0
   29.3800   28.0000   34.9600 C   0  0  0  0  0  0  0  0  0  0  0  0
   30.6700   28.5000   35.1300 C   0  0  0  0  0  0  0  0  0  0  0  0
   31.5400   28.6100   34.0300 C   0  0  0  0  0  0  0  0  0  0  0  0
   31.0900   28.2200   32.7700 C   0  0  0  0  0  0  0  0  0  0  0  0
   29.8000   27.7000   32.6000 C   0  0  0  0  0  0  0  0  0  0  0  0
   28.9600   27.5500   33.7100 C   0  0  0  0  0  0  0  0  0  0  0  0
   27.6600   27.0300   33.5900 C   0  0  0  0  0  0  0  0  0  0  0  0
   27.1600   26.7400   32.3400 N   0  0  0  0  0  0  0  0  0  0  0  0
   23.2445   26.3502   35.7089 C   0  0  0  0  0  0  0  0  0  0  0  0
   22.6834   26.0676   36.8642 N   0  0  0  0  0  0  0  0  0  0  0  0
   21.3178   25.6131   36.6426 C   0  0  0  0  0  0  0  0  0  0  0  0
   21.0953   25.6697   35.3499 C   0  0  0  0  0  0  0  0  0  0  0  0
   20.4701   25.5947   34.0672 C   0  0  2  0  0  0  0  0  0  0  0  0
   20.1366   24.1595   33.6415 C   0  0  0  0  0  0  0  0  0  0  0  0
   19.0328   23.6531   34.4484 N   0  0  0  0  0  0  0  0  0  0  0  0
   18.5471   22.4608   34.2879 C   0  0  0  0  0  0  0  0  0  0  0  0
   17.4906   22.0016   35.0799 O   0  0  0  0  0  0  0  0  0  0  0  0
   16.8898   22.7909   36.1008 C   0  0  0  0  0  0  0  0  0  0  0  0
   21.6690   26.1095   33.4197 C   0  0  0  0  0  0  0  0  0  0  0  0
   22.2682   26.1410   34.6609 C   0  0  0  0  0  0  0  0  0  0  0  0
   21.9941   26.4464   32.1062 O   0  0  0  0  0  0  0  0  0  0  0  0
   23.2853   26.8970   31.7314 C   0  0  0  0  0  0  0  0  0  0  0  0
  1  2  1  0
  2  3  2  0
  2  4  1  0
  4  5  2  0
  5  6  1  0
  6  7  2  0
  7  8  1  0
  8  9  2  0
  9 10  1  0
 10 11  2  0
 11 12  1  0
 12 13  2  0
 13 14  1  0
  1 15  1  0
 15 16  2  0
 16 17  1  0
 17 18  2  0
 18 19  1  0
 19 20  1  6
 20 21  1  0
 21 22  2  3
 22 23  1  0
 23 24  1  0
 19 25  1  0
 25 26  2  0
 25 27  1  0
 27 28  1  0
 13  4  1  0
 26 15  1  0
 12  7  1  0
 26 18  1  0
M  END
>  <AAScore>  (1) 
7379.713188030737

>  <RootName>  (1) 
./4ZLY/04_DeltaGEst/trajectory_05/rank_00/lead_0350

$$$$
