confid_2
     RDKit          3D

 29 33  0  0  0  0  0  0  0  0999 V2000
   25.3300   26.2600   34.7600 N   0  0  0  0  0  0  0  0  0  0  0  0
   26.1200   25.9200   33.6900 C   0  0  0  0  0  0  0  0  0  0  0  0
   25.6300   25.1100   32.9400 O   0  0  0  0  0  0  0  0  0  0  0  0
   27.5200   26.3800   33.4600 C   0  0  0  0  0  0  0  0  0  0  0  0
   28.1600   26.6300   34.6100 N   0  0  0  0  0  0  0  0  0  0  0  0
   29.4800   26.8500   34.5700 N   0  0  0  0  0  0  0  0  0  0  0  0
   30.1900   26.7800   33.4400 C   0  0  0  0  0  0  0  0  0  0  0  0
   31.5600   27.0500   33.5000 C   0  0  0  0  0  0  0  0  0  0  0  0
   32.2700   27.2400   32.3100 C   0  0  0  0  0  0  0  0  0  0  0  0
   31.6100   27.2500   31.0800 C   0  0  0  0  0  0  0  0  0  0  0  0
   30.2700   26.8700   31.0600 C   0  0  0  0  0  0  0  0  0  0  0  0
   29.5100   26.6900   32.2300 C   0  0  0  0  0  0  0  0  0  0  0  0
   28.1400   26.4100   32.2000 C   0  0  0  0  0  0  0  0  0  0  0  0
   27.4300   26.1300   31.0500 N   0  0  0  0  0  0  0  0  0  0  0  0
   23.8896   26.2784   34.7372 C   0  0  0  0  0  0  0  0  0  0  0  0
   23.2111   26.1684   33.5608 N   0  0  0  0  0  0  0  0  0  0  0  0
   21.8542   26.2061   33.5022 C   0  0  0  0  0  0  0  0  0  0  0  0
   21.1019   26.3811   34.6709 C   0  0  0  0  0  0  0  0  0  0  0  0
   19.5938   26.3742   34.6055 C   0  0  0  0  0  0  0  0  0  0  0  0
   18.9509   26.9784   35.7888 N   0  0  0  0  0  0  0  0  0  0  0  0
   17.5196   27.1708   35.7560 C   0  0  0  0  0  0  0  0  0  0  0  0
   16.8207   26.5326   34.9212 O   0  0  0  0  0  0  0  0  0  0  0  0
   16.8242   28.0929   36.7201 C   0  0  0  0  0  0  0  0  0  0  0  0
   17.1901   29.5624   36.5710 C   0  0  0  0  0  0  0  0  0  0  0  0
   15.8428   29.0650   36.0792 C   0  0  0  0  0  0  0  0  0  0  0  0
   19.7444   27.4918   36.9195 C   0  0  0  0  0  0  0  0  0  0  0  0
   20.9820   26.6299   37.1622 C   0  0  0  0  0  0  0  0  0  0  0  0
   21.7734   26.4988   35.8967 C   0  0  0  0  0  0  0  0  0  0  0  0
   23.1735   26.4436   35.9301 C   0  0  0  0  0  0  0  0  0  0  0  0
  1  2  1  0
  2  3  2  0
  2  4  1  0
  4  5  2  0
  5  6  1  0
  6  7  2  0
  7  8  1  0
  8  9  2  0
  9 10  1  0
 10 11  2  0
 11 12  1  0
 12 13  2  0
 13 14  1  0
  1 15  1  0
 15 16  2  0
 16 17  1  0
 17 18  2  0
 18 19  1  0
 19 20  1  0
 20 21  1  0
 21 22  2  0
 21 23  1  0
 23 24  1  0
 24 25  1  0
 20 26  1  0
 26 27  1  0
 27 28  1  0
 28 29  2  0
 13  4  1  0
 29 15  1  0
 12  7  1  0
 28 18  1  0
 25 23  1  0
M  END
>  <AAScore>  (1) 
1124.2631218672125

>  <RootName>  (1) 
./4ZLY/04_DeltaGEst/trajectory_03/rank_00/lead_0112

$$$$
