confid_3
     RDKit          3D

 28 31  0  0  0  0  0  0  0  0999 V2000
   24.2000   26.2400   35.6900 N   0  0  0  0  0  0  0  0  0  0  0  0
   24.8500   26.2800   34.4800 C   0  0  0  0  0  0  0  0  0  0  0  0
   24.3100   25.7400   33.5400 O   0  0  0  0  0  0  0  0  0  0  0  0
   26.1800   26.9700   34.4700 C   0  0  0  0  0  0  0  0  0  0  0  0
   26.6500   27.6000   35.5500 N   0  0  0  0  0  0  0  0  0  0  0  0
   27.7900   28.2700   35.6200 N   0  0  0  0  0  0  0  0  0  0  0  0
   28.5400   28.3000   34.5100 C   0  0  0  0  0  0  0  0  0  0  0  0
   29.7700   28.9400   34.5600 C   0  0  0  0  0  0  0  0  0  0  0  0
   30.7000   28.8900   33.5000 C   0  0  0  0  0  0  0  0  0  0  0  0
   30.3700   28.1400   32.3700 C   0  0  0  0  0  0  0  0  0  0  0  0
   29.1200   27.5200   32.2800 C   0  0  0  0  0  0  0  0  0  0  0  0
   28.2100   27.6100   33.3300 C   0  0  0  0  0  0  0  0  0  0  0  0
   26.9700   26.9700   33.3100 C   0  0  0  0  0  0  0  0  0  0  0  0
   26.5300   26.2400   32.2200 N   0  0  0  0  0  0  0  0  0  0  0  0
   30.1378   29.6789   35.7350 N   0  0  0  0  0  0  0  0  0  0  0  0
   29.5454   31.0013   35.9675 C   0  0  0  0  0  0  0  0  0  0  0  0
   30.0041   31.5959   37.3041 C   0  0  0  0  0  0  0  0  0  0  0  0
   31.4609   31.4586   37.4631 N   0  0  0  0  0  0  0  0  0  0  0  0
   32.1969   32.4786   38.1737 C   0  0  0  0  0  0  0  0  0  0  0  0
   31.5740   33.3118   38.8892 O   0  0  0  0  0  0  0  0  0  0  0  0
   33.7040   32.5292   38.1396 C   0  0  0  0  0  0  0  0  0  0  0  0
   34.2049   33.9398   38.1969 C   0  0  0  0  0  0  0  0  0  0  0  0
   34.2520   34.8291   37.1309 C   0  0  0  0  0  0  0  0  0  0  0  0
   34.7105   36.1005   37.4958 C   0  0  0  0  0  0  0  0  0  0  0  0
   35.0136   36.2177   38.8465 C   0  0  0  0  0  0  0  0  0  0  0  0
   34.7080   34.7390   39.5883 S   0  0  0  0  0  0  0  0  0  0  0  0
   32.1311   30.2093   37.0594 C   0  0  0  0  0  0  0  0  0  0  0  0
   31.1233   29.1258   36.6670 C   0  0  0  0  0  0  0  0  0  0  0  0
  1  2  1  0
  2  3  2  0
  2  4  1  0
  4  5  2  0
  5  6  1  0
  6  7  2  0
  7  8  1  0
  8  9  2  0
  9 10  1  0
 10 11  2  0
 11 12  1  0
 12 13  2  0
 13 14  1  0
  8 15  1  0
 15 16  1  0
 16 17  1  0
 17 18  1  0
 18 19  1  0
 19 20  2  0
 19 21  1  0
 21 22  1  0
 22 23  2  0
 23 24  1  0
 24 25  2  0
 25 26  1  0
 18 27  1  0
 27 28  1  0
 13  4  1  0
 28 15  1  0
 12  7  1  0
 26 22  1  0
M  END
>  <AAScore>  (1) 
-7.771843837614219

>  <RootName>  (1) 
./4ZLY/04_DeltaGEst/trajectory_04/rank_01/lead_0354

$$$$
