confid_13
     RDKit          3D

 31 34  0  0  0  0  0  0  0  0999 V2000
   24.2000   26.2400   35.6900 N   0  0  0  0  0  0  0  0  0  0  0  0
   24.8500   26.2800   34.4800 C   0  0  0  0  0  0  0  0  0  0  0  0
   24.3100   25.7400   33.5400 O   0  0  0  0  0  0  0  0  0  0  0  0
   26.1800   26.9700   34.4700 C   0  0  0  0  0  0  0  0  0  0  0  0
   26.6500   27.6000   35.5500 N   0  0  0  0  0  0  0  0  0  0  0  0
   27.7900   28.2700   35.6200 N   0  0  0  0  0  0  0  0  0  0  0  0
   28.5400   28.3000   34.5100 C   0  0  0  0  0  0  0  0  0  0  0  0
   29.7700   28.9400   34.5600 C   0  0  0  0  0  0  0  0  0  0  0  0
   30.7000   28.8900   33.5000 C   0  0  0  0  0  0  0  0  0  0  0  0
   30.3700   28.1400   32.3700 C   0  0  0  0  0  0  0  0  0  0  0  0
   29.1200   27.5200   32.2800 C   0  0  0  0  0  0  0  0  0  0  0  0
   28.2100   27.6100   33.3300 C   0  0  0  0  0  0  0  0  0  0  0  0
   26.9700   26.9700   33.3100 C   0  0  0  0  0  0  0  0  0  0  0  0
   26.5300   26.2400   32.2200 N   0  0  0  0  0  0  0  0  0  0  0  0
   22.7771   26.0697   35.8615 C   0  0  0  0  0  0  0  0  0  0  0  0
   21.9985   26.0200   34.8182 N   0  0  0  0  0  0  0  0  0  0  0  0
   20.5805   25.8429   34.8381 C   0  0  0  0  0  0  0  0  0  0  0  0
   19.7102   26.7491   34.3447 C   0  0  0  0  0  0  0  0  0  0  0  0
   18.2551   26.3758   34.2430 C   0  0  0  0  0  0  0  0  0  0  0  0
   17.6953   26.9728   33.0149 N   0  0  0  0  0  0  0  0  0  0  0  0
   17.8088   28.4573   32.9676 C   0  0  0  0  0  0  0  0  0  0  0  0
   18.8970   29.0404   33.8900 C   0  0  0  0  0  0  0  0  0  0  0  0
   20.0382   28.1252   34.0182 N   0  0  0  0  0  0  0  0  0  0  0  0
   21.3950   28.6987   34.0082 C   0  0  0  0  0  0  0  0  0  0  0  0
   21.8700   29.1782   35.4024 C   0  0  0  0  0  0  0  0  0  0  0  0
   20.8536   28.5757   36.8192 S   0  0  0  0  0  0  0  0  0  0  0  0
   22.1451   27.6331   37.7163 C   0  0  0  0  0  0  0  0  0  0  0  0
   22.2146   26.1721   37.2586 C   0  0  0  0  0  0  0  0  0  0  0  0
   16.3034   26.5198   32.8013 C   0  0  0  0  0  0  0  0  0  0  0  0
   15.8425   26.7583   31.3549 C   0  0  0  0  0  0  0  0  0  0  0  0
   16.7068   26.0041   30.3474 C   0  0  0  0  0  0  0  0  0  0  0  0
  1  2  1  0
  2  3  2  0
  2  4  1  0
  4  5  2  0
  5  6  1  0
  6  7  2  0
  7  8  1  0
  8  9  2  0
  9 10  1  0
 10 11  2  0
 11 12  1  0
 12 13  2  0
 13 14  1  0
  1 15  1  0
 15 16  2  0
 16 17  1  0
 17 18  2  0
 18 19  1  0
 19 20  1  0
 20 21  1  0
 21 22  1  0
 22 23  1  0
 23 24  1  0
 24 25  1  0
 25 26  1  0
 26 27  1  0
 27 28  1  0
 20 29  1  0
 29 30  1  0
 30 31  1  0
 13  4  1  0
 28 15  1  0
 12  7  1  0
 23 18  1  0
M  END
>  <AAScore>  (1) 
1964.6032931865225

>  <RootName>  (1) 
./4ZLY/04_DeltaGEst/trajectory_04/rank_00/lead_0090

$$$$
