confid_9
     RDKit          3D

 28 31  0  0  0  0  0  0  0  0999 V2000
   25.3300   26.2600   34.7600 N   0  0  0  0  0  0  0  0  0  0  0  0
   26.1200   25.9200   33.6900 C   0  0  0  0  0  0  0  0  0  0  0  0
   25.6300   25.1100   32.9400 O   0  0  0  0  0  0  0  0  0  0  0  0
   27.5200   26.3800   33.4600 C   0  0  0  0  0  0  0  0  0  0  0  0
   28.1600   26.6300   34.6100 N   0  0  0  0  0  0  0  0  0  0  0  0
   29.4800   26.8500   34.5700 N   0  0  0  0  0  0  0  0  0  0  0  0
   30.1900   26.7800   33.4400 C   0  0  0  0  0  0  0  0  0  0  0  0
   31.5600   27.0500   33.5000 C   0  0  0  0  0  0  0  0  0  0  0  0
   32.2700   27.2400   32.3100 C   0  0  0  0  0  0  0  0  0  0  0  0
   31.6100   27.2500   31.0800 C   0  0  0  0  0  0  0  0  0  0  0  0
   30.2700   26.8700   31.0600 C   0  0  0  0  0  0  0  0  0  0  0  0
   29.5100   26.6900   32.2300 C   0  0  0  0  0  0  0  0  0  0  0  0
   28.1400   26.4100   32.2000 C   0  0  0  0  0  0  0  0  0  0  0  0
   27.4300   26.1300   31.0500 N   0  0  0  0  0  0  0  0  0  0  0  0
   24.1693   25.5223   35.2010 C   0  0  0  0  0  0  0  0  0  0  0  0
   24.1110   24.1822   34.9786 N   0  0  0  0  0  0  0  0  0  0  0  0
   23.0861   23.4138   35.4144 C   0  0  0  0  0  0  0  0  0  0  0  0
   22.0323   23.9824   36.1332 C   0  0  0  0  0  0  0  0  0  0  0  0
   20.9589   23.0831   36.6809 C   0  0  0  0  0  0  0  0  0  0  0  0
   19.6604   23.8462   36.8847 C   0  0  0  0  0  0  0  0  0  0  0  0
   19.9198   25.0415   37.6933 N   0  0  0  0  0  0  0  0  0  0  0  0
   19.0165   25.4006   38.7658 C   0  0  0  0  0  0  0  0  0  0  0  0
   18.1852   24.5580   39.2022 O   0  0  0  0  0  0  0  0  0  0  0  0
   19.0574   26.7556   39.4091 C   0  0  0  0  0  0  0  0  0  0  0  0
   20.9254   26.0050   37.2150 C   0  0  0  0  0  0  0  0  0  0  0  0
   22.0481   25.3686   36.4072 C   0  0  0  0  0  0  0  0  0  0  0  0
   23.1221   26.1597   35.9118 C   0  0  0  0  0  0  0  0  0  0  0  0
   23.1935   27.6505   36.1683 C   0  0  0  0  0  0  0  0  0  0  0  0
  1  2  1  0
  2  3  2  0
  2  4  1  0
  4  5  2  0
  5  6  1  0
  6  7  2  0
  7  8  1  0
  8  9  2  0
  9 10  1  0
 10 11  2  0
 11 12  1  0
 12 13  2  0
 13 14  1  0
  1 15  1  0
 15 16  2  0
 16 17  1  0
 17 18  2  0
 18 19  1  0
 19 20  1  0
 20 21  1  0
 21 22  1  0
 22 23  2  0
 22 24  1  0
 21 25  1  0
 25 26  1  0
 26 27  2  0
 27 28  1  0
 13  4  1  0
 27 15  1  0
 12  7  1  0
 26 18  1  0
M  END
>  <AAScore>  (1) 
7304.325805126383

>  <RootName>  (1) 
./4ZLY/04_DeltaGEst/trajectory_03/rank_00/lead_0146

$$$$
