confid_19
     RDKit          3D

 27 30  0  0  0  0  0  0  0  0999 V2000
   24.5700   26.8800   35.5900 N   0  0  0  0  0  0  0  0  0  0  0  0
   25.5000   26.4000   34.6900 C   0  0  0  0  0  0  0  0  0  0  0  0
   25.1700   25.5200   33.9100 O   0  0  0  0  0  0  0  0  0  0  0  0
   26.8400   27.0200   34.7400 C   0  0  0  0  0  0  0  0  0  0  0  0
   27.3800   27.2800   35.9400 N   0  0  0  0  0  0  0  0  0  0  0  0
   28.6200   27.7400   36.0300 N   0  0  0  0  0  0  0  0  0  0  0  0
   29.3800   28.0000   34.9600 C   0  0  0  0  0  0  0  0  0  0  0  0
   30.6700   28.5000   35.1300 C   0  0  0  0  0  0  0  0  0  0  0  0
   31.5400   28.6100   34.0300 C   0  0  0  0  0  0  0  0  0  0  0  0
   31.0900   28.2200   32.7700 C   0  0  0  0  0  0  0  0  0  0  0  0
   29.8000   27.7000   32.6000 C   0  0  0  0  0  0  0  0  0  0  0  0
   28.9600   27.5500   33.7100 C   0  0  0  0  0  0  0  0  0  0  0  0
   27.6600   27.0300   33.5900 C   0  0  0  0  0  0  0  0  0  0  0  0
   27.1600   26.7400   32.3400 N   0  0  0  0  0  0  0  0  0  0  0  0
   23.4066   26.1585   36.0296 C   0  0  0  0  0  0  0  0  0  0  0  0
   22.4584   26.7435   36.6874 N   0  0  0  0  0  0  0  0  0  0  0  0
   21.4918   25.7525   37.0034 C   0  0  0  0  0  0  0  0  0  0  0  0
   21.8585   24.5684   36.5424 C   0  0  0  0  0  0  0  0  0  0  0  0
   21.2822   23.2540   36.9690 C   0  0  0  0  0  0  0  0  0  0  0  0
   22.2823   22.1623   36.8431 N   0  0  0  0  0  0  0  0  0  0  0  0
   22.2275   21.5315   35.5058 C   0  0  0  0  0  0  0  0  0  0  0  0
   23.6630   22.5679   37.2809 C   0  0  1  0  0  0  0  0  0  0  0  0
   23.6211   23.0034   38.7716 C   0  0  0  0  0  0  0  0  0  0  0  0
   24.6489   21.3655   37.1923 C   0  0  0  0  0  0  0  0  0  0  0  0
   24.1305   20.2370   37.8482 O   0  0  0  0  0  0  0  0  0  0  0  0
   24.2291   23.7578   36.4220 C   0  0  0  0  0  0  0  0  0  0  0  0
   23.1491   24.6903   35.8215 C   0  0  2  0  0  0  0  0  0  0  0  0
  1  2  1  0
  2  3  2  0
  2  4  1  0
  4  5  2  0
  5  6  1  0
  6  7  2  0
  7  8  1  0
  8  9  2  0
  9 10  1  0
 10 11  2  0
 11 12  1  0
 12 13  2  0
 13 14  1  0
  1 15  1  0
 15 16  2  0
 16 17  1  0
 17 18  2  0
 18 19  1  0
 19 20  1  0
 20 21  1  0
 20 22  1  0
 22 23  1  1
 22 24  1  0
 24 25  1  0
 22 26  1  0
 27 26  1  1
 13  4  1  0
 27 15  1  0
 12  7  1  0
 27 18  1  0
M  END
>  <AAScore>  (1) 
2359.923816465433

>  <RootName>  (1) 
./4ZLY/04_DeltaGEst/trajectory_05/rank_00/lead_0472

$$$$
