confid_17
     RDKit          3D

 30 34  0  0  0  0  0  0  0  0999 V2000
   25.3300   26.2600   34.7600 N   0  0  0  0  0  0  0  0  0  0  0  0
   26.1200   25.9200   33.6900 C   0  0  0  0  0  0  0  0  0  0  0  0
   25.6300   25.1100   32.9400 O   0  0  0  0  0  0  0  0  0  0  0  0
   27.5200   26.3800   33.4600 C   0  0  0  0  0  0  0  0  0  0  0  0
   28.1600   26.6300   34.6100 N   0  0  0  0  0  0  0  0  0  0  0  0
   29.4800   26.8500   34.5700 N   0  0  0  0  0  0  0  0  0  0  0  0
   30.1900   26.7800   33.4400 C   0  0  0  0  0  0  0  0  0  0  0  0
   31.5600   27.0500   33.5000 C   0  0  0  0  0  0  0  0  0  0  0  0
   32.2700   27.2400   32.3100 C   0  0  0  0  0  0  0  0  0  0  0  0
   31.6100   27.2500   31.0800 C   0  0  0  0  0  0  0  0  0  0  0  0
   30.2700   26.8700   31.0600 C   0  0  0  0  0  0  0  0  0  0  0  0
   29.5100   26.6900   32.2300 C   0  0  0  0  0  0  0  0  0  0  0  0
   28.1400   26.4100   32.2000 C   0  0  0  0  0  0  0  0  0  0  0  0
   27.4300   26.1300   31.0500 N   0  0  0  0  0  0  0  0  0  0  0  0
   27.5674   24.8096   30.4196 C   0  0  0  0  0  0  0  0  0  0  0  0
   26.5552   24.6229   29.2842 C   0  0  0  0  0  0  0  0  0  0  0  0
   26.5432   25.7983   28.3988 N   0  0  0  0  0  0  0  0  0  0  0  0
   26.2859   25.6401   26.9864 C   0  0  0  0  0  0  0  0  0  0  0  0
   25.3796   24.6699   26.5288 C   0  0  0  0  0  0  0  0  0  0  0  0
   25.1273   24.5250   25.1644 C   0  0  0  0  0  0  0  0  0  0  0  0
   25.7589   25.3528   24.2319 C   0  0  0  0  0  0  0  0  0  0  0  0
   25.4395   25.1912   22.8804 O   0  0  0  0  0  0  0  0  0  0  0  0
   25.0084   26.2684   22.0530 C   0  0  0  0  0  0  0  0  0  0  0  0
   26.1672   27.1794   21.6613 C   0  0  0  0  0  0  0  0  0  0  0  0
   26.6613   27.9284   22.8233 N   0  0  0  0  0  0  0  0  0  0  0  0
   27.5190   27.0997   23.6803 C   0  0  0  0  0  0  0  0  0  0  0  0
   26.6953   26.3129   24.6686 C   0  0  0  0  0  0  0  0  0  0  0  0
   26.9438   26.4523   26.0464 C   0  0  0  0  0  0  0  0  0  0  0  0
   26.6377   27.1540   28.9674 C   0  0  0  0  0  0  0  0  0  0  0  0
   26.5201   27.1359   30.4933 C   0  0  0  0  0  0  0  0  0  0  0  0
  1  2  1  0
  2  3  2  0
  2  4  1  0
  4  5  2  0
  5  6  1  0
  6  7  2  0
  7  8  1  0
  8  9  2  0
  9 10  1  0
 10 11  2  0
 11 12  1  0
 12 13  2  0
 13 14  1  0
 14 15  1  0
 15 16  1  0
 16 17  1  0
 17 18  1  0
 18 19  2  0
 19 20  1  0
 20 21  2  0
 21 22  1  0
 22 23  1  0
 23 24  1  0
 24 25  1  0
 25 26  1  0
 26 27  1  0
 27 28  2  0
 17 29  1  0
 29 30  1  0
 13  4  1  0
 30 14  1  0
 12  7  1  0
 28 18  1  0
 27 21  1  0
M  END
>  <AAScore>  (1) 
2.536029264942838

>  <RootName>  (1) 
./4ZLY/04_DeltaGEst/trajectory_03/rank_01/lead_0433

$$$$
