confid_3
     RDKit          3D

 28 31  0  0  0  0  0  0  0  0999 V2000
   24.5500   26.3900   36.2500 N   0  0  0  0  0  0  0  0  0  0  0  0
   25.6000   26.1300   35.4000 C   0  0  0  0  0  0  0  0  0  0  0  0
   25.4300   25.4300   34.4200 O   0  0  0  0  0  0  0  0  0  0  0  0
   26.9800   26.6300   35.7100 C   0  0  0  0  0  0  0  0  0  0  0  0
   27.3200   26.8200   36.9800 N   0  0  0  0  0  0  0  0  0  0  0  0
   28.4700   27.4000   37.3100 N   0  0  0  0  0  0  0  0  0  0  0  0
   29.4000   27.6300   36.3700 C   0  0  0  0  0  0  0  0  0  0  0  0
   30.6600   28.0500   36.8000 C   0  0  0  0  0  0  0  0  0  0  0  0
   31.5700   28.3600   35.7800 C   0  0  0  0  0  0  0  0  0  0  0  0
   31.3700   28.1000   34.4300 C   0  0  0  0  0  0  0  0  0  0  0  0
   30.1200   27.5900   34.0500 C   0  0  0  0  0  0  0  0  0  0  0  0
   29.1500   27.3400   35.0300 C   0  0  0  0  0  0  0  0  0  0  0  0
   27.8800   26.8900   34.6600 C   0  0  0  0  0  0  0  0  0  0  0  0
   27.4800   26.6100   33.3700 N   0  0  0  0  0  0  0  0  0  0  0  0
   23.1759   26.0748   35.9476 C   0  0  0  0  0  0  0  0  0  0  0  0
   22.7729   26.0317   34.6490 N   0  0  0  0  0  0  0  0  0  0  0  0
   21.4876   25.8006   34.2909 C   0  0  0  0  0  0  0  0  0  0  0  0
   20.5015   25.6467   35.2680 C   0  0  0  0  0  0  0  0  0  0  0  0
   19.0819   25.3478   34.8616 C   0  0  0  0  0  0  0  0  0  0  0  0
   18.1313   25.9602   35.7951 N   0  0  0  0  0  0  0  0  0  0  0  0
   16.8091   26.3822   35.3158 C   0  0  0  0  0  0  0  0  0  0  0  0
   15.8115   25.2338   35.4204 C   0  0  0  0  0  0  0  0  0  0  0  0
   18.4372   25.9666   37.2017 C   0  0  0  0  0  0  0  0  0  0  0  0
   17.5647   26.3139   38.0435 O   0  0  0  0  0  0  0  0  0  0  0  0
   19.7886   25.5275   37.6880 C   0  0  0  0  0  0  0  0  0  0  0  0
   20.8626   25.7001   36.6301 C   0  0  0  0  0  0  0  0  0  0  0  0
   22.2308   25.8539   36.9796 C   0  0  0  0  0  0  0  0  0  0  0  0
   22.6791   25.7933   38.4228 C   0  0  0  0  0  0  0  0  0  0  0  0
  1  2  1  0
  2  3  2  0
  2  4  1  0
  4  5  2  0
  5  6  1  0
  6  7  2  0
  7  8  1  0
  8  9  2  0
  9 10  1  0
 10 11  2  0
 11 12  1  0
 12 13  2  0
 13 14  1  0
  1 15  1  0
 15 16  2  0
 16 17  1  0
 17 18  2  0
 18 19  1  0
 19 20  1  0
 20 21  1  0
 21 22  1  0
 20 23  1  0
 23 24  2  0
 23 25  1  0
 25 26  1  0
 26 27  2  0
 27 28  1  0
 13  4  1  0
 27 15  1  0
 12  7  1  0
 26 18  1  0
M  END
>  <AAScore>  (1) 
12987.827940135418

>  <RootName>  (1) 
./4ZLY/04_DeltaGEst/trajectory_01/rank_00/lead_0442

$$$$
