confid_5
     RDKit          3D

 27 30  0  0  0  0  0  0  0  0999 V2000
   24.6900   26.1200   35.5300 N   0  0  0  0  0  0  0  0  0  0  0  0
   25.6600   25.6700   34.6600 C   0  0  0  0  0  0  0  0  0  0  0  0
   25.2400   25.0100   33.7200 O   0  0  0  0  0  0  0  0  0  0  0  0
   27.0300   26.2200   34.8800 C   0  0  0  0  0  0  0  0  0  0  0  0
   27.3500   26.7300   36.0700 N   0  0  0  0  0  0  0  0  0  0  0  0
   28.5700   27.1800   36.3300 N   0  0  0  0  0  0  0  0  0  0  0  0
   29.5300   27.1100   35.3900 C   0  0  0  0  0  0  0  0  0  0  0  0
   30.8300   27.5700   35.6500 C   0  0  0  0  0  0  0  0  0  0  0  0
   31.8500   27.5400   34.6900 C   0  0  0  0  0  0  0  0  0  0  0  0
   31.5100   27.1200   33.4000 C   0  0  0  0  0  0  0  0  0  0  0  0
   30.2200   26.6300   33.1100 C   0  0  0  0  0  0  0  0  0  0  0  0
   29.2400   26.6600   34.1000 C   0  0  0  0  0  0  0  0  0  0  0  0
   27.9300   26.2600   33.8100 C   0  0  0  0  0  0  0  0  0  0  0  0
   27.5200   25.7100   32.6100 N   0  0  0  0  0  0  0  0  0  0  0  0
   31.1425   28.0752   36.9566 N   0  0  0  0  0  0  0  0  0  0  0  0
   31.4644   29.4970   37.1210 C   0  0  0  0  0  0  0  0  0  0  0  0
   30.8964   30.0708   38.4393 C   0  0  0  0  0  0  0  0  0  0  0  0
   30.4478   28.9937   39.4671 C   0  0  0  0  0  0  0  0  0  0  0  0
   31.4737   27.8278   39.4023 C   0  0  0  0  0  0  0  0  0  0  0  0
   31.4058   27.1214   38.0410 C   0  0  0  0  0  0  0  0  0  0  0  0
   29.1380   28.5732   39.0808 O   0  0  0  0  0  0  0  0  0  0  0  0
   28.5357   27.6842   40.0076 C   0  0  0  0  0  0  0  0  0  0  0  0
   28.3600   28.3303   41.3835 C   0  0  0  0  0  0  0  0  0  0  0  0
   27.8084   27.4110   42.2597 F   0  0  0  0  0  0  0  0  0  0  0  0
   27.5058   29.4160   41.2803 F   0  0  0  0  0  0  0  0  0  0  0  0
   29.7157   28.7857   41.9141 C   0  0  0  0  0  0  0  0  0  0  0  0
   30.4266   29.6544   40.8752 C   0  0  0  0  0  0  0  0  0  0  0  0
  1  2  1  0
  2  3  2  0
  2  4  1  0
  4  5  2  0
  5  6  1  0
  6  7  2  0
  7  8  1  0
  8  9  2  0
  9 10  1  0
 10 11  2  0
 11 12  1  0
 12 13  2  0
 13 14  1  0
  8 15  1  0
 15 16  1  0
 16 17  1  0
 17 18  1  0
 18 19  1  0
 19 20  1  0
 18 21  1  0
 21 22  1  0
 22 23  1  0
 23 24  1  0
 23 25  1  0
 23 26  1  0
 26 27  1  0
 13  4  1  0
 20 15  1  0
 12  7  1  0
 27 18  1  0
M  END
>  <AAScore>  (1) 
-5.555640526723867

>  <RootName>  (1) 
./4ZLY/04_DeltaGEst/trajectory_02/rank_01/lead_0065

$$$$
