confid_1
     RDKit          3D

 28 31  0  0  0  0  0  0  0  0999 V2000
   24.4800   26.1000   36.1300 N   0  0  0  0  0  0  0  0  0  0  0  0
   25.2500   26.2500   34.9900 C   0  0  0  0  0  0  0  0  0  0  0  0
   24.7400   25.7600   33.9900 O   0  0  0  0  0  0  0  0  0  0  0  0
   26.5900   26.8900   34.9600 C   0  0  0  0  0  0  0  0  0  0  0  0
   27.0600   27.2400   36.1600 N   0  0  0  0  0  0  0  0  0  0  0  0
   28.3000   27.7100   36.2400 N   0  0  0  0  0  0  0  0  0  0  0  0
   29.0500   27.9600   35.1500 C   0  0  0  0  0  0  0  0  0  0  0  0
   30.3400   28.4900   35.2600 C   0  0  0  0  0  0  0  0  0  0  0  0
   31.1100   28.8200   34.1400 C   0  0  0  0  0  0  0  0  0  0  0  0
   30.5200   28.6700   32.8800 C   0  0  0  0  0  0  0  0  0  0  0  0
   29.2900   28.0200   32.7700 C   0  0  0  0  0  0  0  0  0  0  0  0
   28.5200   27.7100   33.8900 C   0  0  0  0  0  0  0  0  0  0  0  0
   27.2700   27.0800   33.7600 C   0  0  0  0  0  0  0  0  0  0  0  0
   26.7500   26.8800   32.4900 N   0  0  0  0  0  0  0  0  0  0  0  0
   23.0437   26.0278   36.1509 C   0  0  0  0  0  0  0  0  0  0  0  0
   22.2998   25.6976   37.2907 C   0  0  0  0  0  0  0  0  0  0  0  0
   20.9401   25.7821   37.0165 C   0  0  0  0  0  0  0  0  0  0  0  0
   19.7158   25.6605   37.7597 C   0  0  0  0  0  0  0  0  0  0  0  0
   19.6110   25.3603   38.9783 O   0  0  0  0  0  0  0  0  0  0  0  0
   18.6181   25.9770   36.8961 N   0  0  0  0  0  0  0  0  0  0  0  0
   17.2118   26.0379   37.2867 C   0  0  0  0  0  0  0  0  0  0  0  0
   16.6496   24.6248   37.4711 C   0  0  0  0  0  0  0  0  0  0  0  0
   15.2515   24.6790   37.9522 N   0  0  0  0  0  0  0  0  0  0  0  0
   14.9214   23.4543   38.6995 C   0  0  0  0  0  0  0  0  0  0  0  0
   14.3104   24.8326   36.8283 C   0  0  0  0  0  0  0  0  0  0  0  0
   19.1436   26.3450   35.5708 C   0  0  0  0  0  0  0  0  0  0  0  0
   20.6147   26.1653   35.7616 C   0  0  0  0  0  0  0  0  0  0  0  0
   21.9993   26.4577   34.8630 S   0  0  0  0  0  0  0  0  0  0  0  0
  1  2  1  0
  2  3  2  0
  2  4  1  0
  4  5  2  0
  5  6  1  0
  6  7  2  0
  7  8  1  0
  8  9  2  0
  9 10  1  0
 10 11  2  0
 11 12  1  0
 12 13  2  0
 13 14  1  0
  1 15  1  0
 15 16  2  0
 16 17  1  0
 17 18  1  0
 18 19  2  0
 18 20  1  0
 20 21  1  0
 21 22  1  0
 22 23  1  0
 23 24  1  0
 23 25  1  0
 20 26  1  0
 26 27  1  0
 27 28  1  0
 13  4  1  0
 28 15  1  0
 12  7  1  0
 27 17  2  0
M  END
>  <AAScore>  (1) 
341.46952607084523

>  <RootName>  (1) 
./4ZLY/04_DeltaGEst/trajectory_00/rank_00/lead_0272

$$$$
