confid_17
     RDKit          3D

 28 31  0  0  0  0  0  0  0  0999 V2000
   24.5700   26.8800   35.5900 N   0  0  0  0  0  0  0  0  0  0  0  0
   25.5000   26.4000   34.6900 C   0  0  0  0  0  0  0  0  0  0  0  0
   25.1700   25.5200   33.9100 O   0  0  0  0  0  0  0  0  0  0  0  0
   26.8400   27.0200   34.7400 C   0  0  0  0  0  0  0  0  0  0  0  0
   27.3800   27.2800   35.9400 N   0  0  0  0  0  0  0  0  0  0  0  0
   28.6200   27.7400   36.0300 N   0  0  0  0  0  0  0  0  0  0  0  0
   29.3800   28.0000   34.9600 C   0  0  0  0  0  0  0  0  0  0  0  0
   30.6700   28.5000   35.1300 C   0  0  0  0  0  0  0  0  0  0  0  0
   31.5400   28.6100   34.0300 C   0  0  0  0  0  0  0  0  0  0  0  0
   31.0900   28.2200   32.7700 C   0  0  0  0  0  0  0  0  0  0  0  0
   29.8000   27.7000   32.6000 C   0  0  0  0  0  0  0  0  0  0  0  0
   28.9600   27.5500   33.7100 C   0  0  0  0  0  0  0  0  0  0  0  0
   27.6600   27.0300   33.5900 C   0  0  0  0  0  0  0  0  0  0  0  0
   27.1600   26.7400   32.3400 N   0  0  0  0  0  0  0  0  0  0  0  0
   33.1709   29.2494   34.2246 S   0  0  0  0  0  6  0  0  0  0  0  0
   34.1414   28.1516   33.8892 O   0  0  0  0  0  0  0  0  0  0  0  0
   33.4012   29.6705   35.6499 O   0  0  0  0  0  0  0  0  0  0  0  0
   33.4629   30.6561   33.1263 C   0  0  2  0  0  0  0  0  0  0  0  0
   34.9401   31.0871   33.1890 C   0  0  0  0  0  0  0  0  0  0  0  0
   34.9819   32.5097   33.5666 N   0  0  0  0  0  0  0  0  0  0  0  0
   33.6973   32.7844   34.2119 C   0  0  0  0  0  3  0  0  0  0  0  0
   32.6901   31.9431   33.4618 C   0  0  2  0  0  0  0  0  0  0  0  0
   31.3565   31.8099   34.2060 C   0  0  0  0  0  0  0  0  0  0  0  0
   36.1493   32.8420   34.4160 C   0  0  0  0  0  0  0  0  0  0  0  0
   36.6160   34.3087   34.2589 C   0  0  0  0  0  0  0  0  0  0  0  0
   36.5565   34.8679   32.8364 C   0  0  0  0  0  0  0  0  0  0  0  0
   35.5443   35.9109   33.2954 C   0  0  0  0  0  0  0  0  0  0  0  0
   35.6289   35.3791   34.7210 C   0  0  0  0  0  0  0  0  0  0  0  0
  1  2  1  0
  2  3  2  0
  2  4  1  0
  4  5  2  0
  5  6  1  0
  6  7  2  0
  7  8  1  0
  8  9  2  0
  9 10  1  0
 10 11  2  0
 11 12  1  0
 12 13  2  0
 13 14  1  0
  9 15  1  0
 15 16  2  0
 15 17  2  0
 18 15  1  1
 18 19  1  0
 19 20  1  0
 20 21  1  0
 21 22  1  0
 22 23  1  1
 20 24  1  0
 24 25  1  0
 25 26  1  0
 26 27  1  0
 27 28  1  0
 13  4  1  0
 22 18  1  0
 28 25  1  0
 12  7  1  0
M  RAD  1  21   2
M  END
>  <AAScore>  (1) 
-6.144446594811629

>  <RootName>  (1) 
./4ZLY/04_DeltaGEst/trajectory_05/rank_01/lead_0169

$$$$
