confid_11
     RDKit          3D

 27 30  0  0  0  0  0  0  0  0999 V2000
   24.5700   26.8800   35.5900 N   0  0  0  0  0  0  0  0  0  0  0  0
   25.5000   26.4000   34.6900 C   0  0  0  0  0  0  0  0  0  0  0  0
   25.1700   25.5200   33.9100 O   0  0  0  0  0  0  0  0  0  0  0  0
   26.8400   27.0200   34.7400 C   0  0  0  0  0  0  0  0  0  0  0  0
   27.3800   27.2800   35.9400 N   0  0  0  0  0  0  0  0  0  0  0  0
   28.6200   27.7400   36.0300 N   0  0  0  0  0  0  0  0  0  0  0  0
   29.3800   28.0000   34.9600 C   0  0  0  0  0  0  0  0  0  0  0  0
   30.6700   28.5000   35.1300 C   0  0  0  0  0  0  0  0  0  0  0  0
   31.5400   28.6100   34.0300 C   0  0  0  0  0  0  0  0  0  0  0  0
   31.0900   28.2200   32.7700 C   0  0  0  0  0  0  0  0  0  0  0  0
   29.8000   27.7000   32.6000 C   0  0  0  0  0  0  0  0  0  0  0  0
   28.9600   27.5500   33.7100 C   0  0  0  0  0  0  0  0  0  0  0  0
   27.6600   27.0300   33.5900 C   0  0  0  0  0  0  0  0  0  0  0  0
   27.1600   26.7400   32.3400 N   0  0  0  0  0  0  0  0  0  0  0  0
   23.1520   26.6618   35.4927 C   0  0  0  0  0  0  0  0  0  0  0  0
   22.4235   26.5514   36.6355 N   0  0  0  0  0  0  0  0  0  0  0  0
   21.0758   26.3820   36.6036 C   0  0  0  0  0  0  0  0  0  0  0  0
   20.3172   26.2248   37.8901 C   0  0  0  0  0  0  0  0  0  0  0  0
   20.4673   24.9034   38.6794 C   0  0  0  0  0  0  0  0  0  0  0  0
   19.2626   24.0531   38.5630 N   0  0  0  0  0  0  0  0  0  0  0  0
   19.3184   22.9649   39.5532 C   0  0  0  0  0  0  0  0  0  0  0  0
   19.1455   23.4806   37.2110 C   0  0  0  0  0  0  0  0  0  0  0  0
   20.2508   27.5054   38.7229 C   0  0  0  0  0  0  0  0  0  0  0  0
   19.0030   26.9904   38.0253 C   0  0  0  0  0  0  0  0  0  0  0  0
   20.4302   26.3207   35.4083 N   0  0  0  0  0  0  0  0  0  0  0  0
   21.1101   26.4442   34.2397 C   0  0  0  0  0  0  0  0  0  0  0  0
   22.4920   26.6263   34.2543 C   0  0  0  0  0  0  0  0  0  0  0  0
  1  2  1  0
  2  3  2  0
  2  4  1  0
  4  5  2  0
  5  6  1  0
  6  7  2  0
  7  8  1  0
  8  9  2  0
  9 10  1  0
 10 11  2  0
 11 12  1  0
 12 13  2  0
 13 14  1  0
  1 15  1  0
 15 16  2  0
 16 17  1  0
 17 18  1  0
 18 19  1  0
 19 20  1  0
 20 21  1  0
 20 22  1  0
 18 23  1  0
 23 24  1  0
 17 25  2  0
 25 26  1  0
 26 27  2  0
 13  4  1  0
 27 15  1  0
 12  7  1  0
 24 18  1  0
M  END
>  <AAScore>  (1) 
1509.8642293418714

>  <RootName>  (1) 
./4ZLY/04_DeltaGEst/trajectory_05/rank_00/lead_0218

$$$$
