confid_3
     RDKit          3D

 27 30  0  0  0  0  0  0  0  0999 V2000
   24.2000   26.2400   35.6900 N   0  0  0  0  0  0  0  0  0  0  0  0
   24.8500   26.2800   34.4800 C   0  0  0  0  0  0  0  0  0  0  0  0
   24.3100   25.7400   33.5400 O   0  0  0  0  0  0  0  0  0  0  0  0
   26.1800   26.9700   34.4700 C   0  0  0  0  0  0  0  0  0  0  0  0
   26.6500   27.6000   35.5500 N   0  0  0  0  0  0  0  0  0  0  0  0
   27.7900   28.2700   35.6200 N   0  0  0  0  0  0  0  0  0  0  0  0
   28.5400   28.3000   34.5100 C   0  0  0  0  0  0  0  0  0  0  0  0
   29.7700   28.9400   34.5600 C   0  0  0  0  0  0  0  0  0  0  0  0
   30.7000   28.8900   33.5000 C   0  0  0  0  0  0  0  0  0  0  0  0
   30.3700   28.1400   32.3700 C   0  0  0  0  0  0  0  0  0  0  0  0
   29.1200   27.5200   32.2800 C   0  0  0  0  0  0  0  0  0  0  0  0
   28.2100   27.6100   33.3300 C   0  0  0  0  0  0  0  0  0  0  0  0
   26.9700   26.9700   33.3100 C   0  0  0  0  0  0  0  0  0  0  0  0
   26.5300   26.2400   32.2200 N   0  0  0  0  0  0  0  0  0  0  0  0
   22.7898   25.9955   35.8386 C   0  0  0  0  0  0  0  0  0  0  0  0
   21.9159   25.9121   34.8135 N   0  0  0  0  0  0  0  0  0  0  0  0
   20.7259   25.7066   35.4205 C   0  0  0  0  0  0  0  0  0  0  0  0
   19.4421   25.5513   34.6638 C   0  0  0  0  0  0  0  0  0  0  0  0
   18.4077   26.5938   35.1001 C   0  0  0  0  0  0  0  0  0  0  0  0
   17.7826   26.2139   36.3873 N   0  0  0  0  0  0  0  0  0  0  0  0
   18.6410   26.5129   37.5556 C   0  0  0  0  0  0  0  0  0  0  0  0
   19.7294   25.4478   37.7201 C   0  0  0  0  0  0  0  0  0  0  0  0
   20.8201   25.6656   36.7681 N   0  0  0  0  0  0  0  0  0  0  0  0
   22.1262   25.8494   37.0379 C   0  0  0  0  0  0  0  0  0  0  0  0
   22.8445   25.8933   38.6427 Cl  0  0  0  0  0  0  0  0  0  0  0  0
   16.4210   26.7792   36.5354 C   0  0  0  0  0  0  0  0  0  0  0  0
   16.3893   28.3132   36.5889 C   0  0  0  0  0  0  0  0  0  0  0  0
  1  2  1  0
  2  3  2  0
  2  4  1  0
  4  5  2  0
  5  6  1  0
  6  7  2  0
  7  8  1  0
  8  9  2  0
  9 10  1  0
 10 11  2  0
 11 12  1  0
 12 13  2  0
 13 14  1  0
  1 15  1  0
 15 16  1  0
 16 17  2  0
 17 18  1  0
 18 19  1  0
 19 20  1  0
 20 21  1  0
 21 22  1  0
 22 23  1  0
 23 24  1  0
 24 25  1  0
 20 26  1  0
 26 27  1  0
 13  4  1  0
 24 15  2  0
 12  7  1  0
 23 17  1  0
M  END
>  <AAScore>  (1) 
768.481426605418

>  <RootName>  (1) 
./4ZLY/04_DeltaGEst/trajectory_04/rank_00/lead_0496

$$$$
