confid_6
     RDKit          3D

 26 28  0  0  0  0  0  0  0  0999 V2000
   24.5700   26.8800   35.5900 N   0  0  0  0  0  0  0  0  0  0  0  0
   25.5000   26.4000   34.6900 C   0  0  0  0  0  0  0  0  0  0  0  0
   25.1700   25.5200   33.9100 O   0  0  0  0  0  0  0  0  0  0  0  0
   26.8400   27.0200   34.7400 C   0  0  0  0  0  0  0  0  0  0  0  0
   27.3800   27.2800   35.9400 N   0  0  0  0  0  0  0  0  0  0  0  0
   28.6200   27.7400   36.0300 N   0  0  0  0  0  0  0  0  0  0  0  0
   29.3800   28.0000   34.9600 C   0  0  0  0  0  0  0  0  0  0  0  0
   30.6700   28.5000   35.1300 C   0  0  0  0  0  0  0  0  0  0  0  0
   31.5400   28.6100   34.0300 C   0  0  0  0  0  0  0  0  0  0  0  0
   31.0900   28.2200   32.7700 C   0  0  0  0  0  0  0  0  0  0  0  0
   29.8000   27.7000   32.6000 C   0  0  0  0  0  0  0  0  0  0  0  0
   28.9600   27.5500   33.7100 C   0  0  0  0  0  0  0  0  0  0  0  0
   27.6600   27.0300   33.5900 C   0  0  0  0  0  0  0  0  0  0  0  0
   27.1600   26.7400   32.3400 N   0  0  0  0  0  0  0  0  0  0  0  0
   33.1453   29.3053   34.2324 S   0  0  0  0  0  6  0  0  0  0  0  0
   33.7090   28.8834   35.5602 O   0  0  0  0  0  0  0  0  0  0  0  0
   34.0561   28.8038   33.1472 O   0  0  0  0  0  0  0  0  0  0  0  0
   33.0445   31.0877   34.1726 C   0  0  0  0  0  0  0  0  0  0  0  0
   32.1908   31.5314   33.0177 C   0  0  0  0  0  0  0  0  0  0  0  0
   32.5957   31.6585   31.7306 N   0  0  0  0  0  0  0  0  0  0  0  0
   31.5033   32.0135   31.0188 C   0  0  0  0  0  0  0  0  0  0  0  0
   30.4004   32.0918   31.8428 C   0  0  0  0  0  0  0  0  0  0  0  0
   30.8341   31.7813   33.1137 C   0  0  0  0  0  0  0  0  0  0  0  0
   33.9540   31.4910   31.1886 C   0  0  0  0  0  0  0  0  0  0  0  0
   34.5041   32.8379   30.7123 C   0  0  0  0  0  0  0  0  0  0  0  0
   33.9614   30.4599   30.0545 C   0  0  0  0  0  0  0  0  0  0  0  0
  1  2  1  0
  2  3  2  0
  2  4  1  0
  4  5  2  0
  5  6  1  0
  6  7  2  0
  7  8  1  0
  8  9  2  0
  9 10  1  0
 10 11  2  0
 11 12  1  0
 12 13  2  0
 13 14  1  0
  9 15  1  0
 15 16  2  0
 15 17  2  0
 15 18  1  0
 18 19  1  0
 19 20  1  0
 20 21  1  0
 21 22  2  0
 22 23  1  0
 20 24  1  0
 24 25  1  0
 24 26  1  0
 13  4  1  0
 23 19  2  0
 12  7  1  0
M  END
>  <AAScore>  (1) 
-5.471275714256561

>  <RootName>  (1) 
./4ZLY/04_DeltaGEst/trajectory_05/rank_01/lead_0206

$$$$
