confid_1
     RDKit          3D

 27 30  0  0  0  0  0  0  0  0999 V2000
   24.4800   26.1000   36.1300 N   0  0  0  0  0  0  0  0  0  0  0  0
   25.2500   26.2500   34.9900 C   0  0  0  0  0  0  0  0  0  0  0  0
   24.7400   25.7600   33.9900 O   0  0  0  0  0  0  0  0  0  0  0  0
   26.5900   26.8900   34.9600 C   0  0  0  0  0  0  0  0  0  0  0  0
   27.0600   27.2400   36.1600 N   0  0  0  0  0  0  0  0  0  0  0  0
   28.3000   27.7100   36.2400 N   0  0  0  0  0  0  0  0  0  0  0  0
   29.0500   27.9600   35.1500 C   0  0  0  0  0  0  0  0  0  0  0  0
   30.3400   28.4900   35.2600 C   0  0  0  0  0  0  0  0  0  0  0  0
   31.1100   28.8200   34.1400 C   0  0  0  0  0  0  0  0  0  0  0  0
   30.5200   28.6700   32.8800 C   0  0  0  0  0  0  0  0  0  0  0  0
   29.2900   28.0200   32.7700 C   0  0  0  0  0  0  0  0  0  0  0  0
   28.5200   27.7100   33.8900 C   0  0  0  0  0  0  0  0  0  0  0  0
   27.2700   27.0800   33.7600 C   0  0  0  0  0  0  0  0  0  0  0  0
   26.7500   26.8800   32.4900 N   0  0  0  0  0  0  0  0  0  0  0  0
   23.0695   25.8220   36.1498 C   0  0  0  0  0  0  0  0  0  0  0  0
   22.2797   25.7967   35.0581 N   0  0  0  0  0  0  0  0  0  0  0  0
   20.9752   25.5440   35.3627 C   0  0  0  0  0  0  0  0  0  0  0  0
   19.9787   25.4654   34.2575 C   0  0  0  0  0  0  0  0  0  0  0  0
   19.5833   24.0686   34.0603 N   0  0  0  0  0  0  0  0  0  0  0  0
   20.2396   23.2562   33.0315 C   0  0  0  0  0  0  0  0  0  0  0  0
   18.6782   23.4410   34.9827 C   0  0  0  0  0  0  0  0  0  0  0  0
   18.6618   22.1849   35.0983 O   0  0  0  0  0  0  0  0  0  0  0  0
   17.7386   24.2587   35.8111 C   0  0  0  0  0  0  0  0  0  0  0  0
   18.2762   24.5936   37.1707 C   0  0  0  0  0  0  0  0  0  0  0  0
   19.4784   25.0853   37.5240 C   0  0  0  0  0  0  0  0  0  0  0  0
   20.7149   25.3488   36.7378 C   0  0  0  0  0  0  0  0  0  0  0  0
   22.1868   25.5436   37.5405 S   0  0  0  0  0  0  0  0  0  0  0  0
  1  2  1  0
  2  3  2  0
  2  4  1  0
  4  5  2  0
  5  6  1  0
  6  7  2  0
  7  8  1  0
  8  9  2  0
  9 10  1  0
 10 11  2  0
 11 12  1  0
 12 13  2  0
 13 14  1  0
  1 15  1  0
 15 16  2  0
 16 17  1  0
 17 18  1  0
 18 19  1  0
 19 20  1  0
 19 21  1  0
 21 22  2  0
 21 23  1  0
 23 24  1  0
 24 25  2  0
 25 26  1  0
 26 27  1  0
 13  4  1  0
 27 15  1  0
 12  7  1  0
 26 17  2  0
M  END
>  <AAScore>  (1) 
513.8995847898994

>  <RootName>  (1) 
./4ZLY/04_DeltaGEst/trajectory_00/rank_01/lead_0277

$$$$
