confid_2
     RDKit          3D

 31 35  0  0  0  0  0  0  0  0999 V2000
   25.3300   26.2600   34.7600 N   0  0  0  0  0  0  0  0  0  0  0  0
   26.1200   25.9200   33.6900 C   0  0  0  0  0  0  0  0  0  0  0  0
   25.6300   25.1100   32.9400 O   0  0  0  0  0  0  0  0  0  0  0  0
   27.5200   26.3800   33.4600 C   0  0  0  0  0  0  0  0  0  0  0  0
   28.1600   26.6300   34.6100 N   0  0  0  0  0  0  0  0  0  0  0  0
   29.4800   26.8500   34.5700 N   0  0  0  0  0  0  0  0  0  0  0  0
   30.1900   26.7800   33.4400 C   0  0  0  0  0  0  0  0  0  0  0  0
   31.5600   27.0500   33.5000 C   0  0  0  0  0  0  0  0  0  0  0  0
   32.2700   27.2400   32.3100 C   0  0  0  0  0  0  0  0  0  0  0  0
   31.6100   27.2500   31.0800 C   0  0  0  0  0  0  0  0  0  0  0  0
   30.2700   26.8700   31.0600 C   0  0  0  0  0  0  0  0  0  0  0  0
   29.5100   26.6900   32.2300 C   0  0  0  0  0  0  0  0  0  0  0  0
   28.1400   26.4100   32.2000 C   0  0  0  0  0  0  0  0  0  0  0  0
   27.4300   26.1300   31.0500 N   0  0  0  0  0  0  0  0  0  0  0  0
   23.8960   26.1827   34.7651 C   0  0  0  0  0  0  0  0  0  0  0  0
   23.2162   25.9225   35.8382 N   0  0  0  0  0  0  0  0  0  0  0  0
   21.8292   25.9851   35.4801 C   0  0  0  0  0  0  0  0  0  0  0  0
   21.6859   26.2774   34.1948 C   0  0  0  0  0  0  0  0  0  0  0  0
   20.4500   26.6622   33.4498 C   0  0  0  0  0  0  0  0  0  0  0  0
   20.7417   26.6659   31.9321 C   0  0  0  0  0  0  0  0  0  0  0  0
   22.0529   27.2801   31.6132 N   0  0  0  0  0  0  0  0  0  0  0  0
   22.2159   27.9876   30.3674 C   0  0  0  0  0  0  0  0  0  0  0  0
   21.4552   27.7189   29.3966 O   0  0  0  0  0  0  0  0  0  0  0  0
   23.2781   29.0504   30.1953 C   0  0  0  0  0  0  0  0  0  0  0  0
   22.6790   30.3552   29.6458 C   0  0  0  0  0  0  0  0  0  0  0  0
   23.8039   31.3564   29.3499 C   0  0  0  0  0  0  0  0  0  0  0  0
   24.7326   30.8160   28.4268 O   0  0  0  0  0  0  0  0  0  0  0  0
   25.3864   29.6952   28.9947 C   0  0  0  0  0  0  0  0  0  0  0  0
   24.3916   28.5582   29.2600 C   0  0  0  0  0  0  0  0  0  0  0  0
   23.2005   26.9873   32.4445 C   0  0  0  0  0  0  0  0  0  0  0  0
   22.9987   26.4641   33.6497 C   0  0  0  0  0  0  0  0  0  0  0  0
  1  2  1  0
  2  3  2  0
  2  4  1  0
  4  5  2  0
  5  6  1  0
  6  7  2  0
  7  8  1  0
  8  9  2  0
  9 10  1  0
 10 11  2  0
 11 12  1  0
 12 13  2  0
 13 14  1  0
  1 15  1  0
 15 16  2  0
 16 17  1  0
 17 18  2  0
 18 19  1  0
 19 20  1  0
 20 21  1  0
 21 22  1  0
 22 23  2  0
 22 24  1  0
 24 25  1  0
 25 26  1  0
 26 27  1  0
 27 28  1  0
 28 29  1  0
 21 30  1  0
 30 31  2  0
 13  4  1  0
 31 15  1  0
 12  7  1  0
 31 18  1  0
 29 24  1  0
M  END
>  <AAScore>  (1) 
3710.564452023766

>  <RootName>  (1) 
./4ZLY/04_DeltaGEst/trajectory_03/rank_00/lead_0016

$$$$
