confid_0
     RDKit          3D

 31 35  0  0  0  0  0  0  0  0999 V2000
   24.2000   26.2400   35.6900 N   0  0  0  0  0  0  0  0  0  0  0  0
   24.8500   26.2800   34.4800 C   0  0  0  0  0  0  0  0  0  0  0  0
   24.3100   25.7400   33.5400 O   0  0  0  0  0  0  0  0  0  0  0  0
   26.1800   26.9700   34.4700 C   0  0  0  0  0  0  0  0  0  0  0  0
   26.6500   27.6000   35.5500 N   0  0  0  0  0  0  0  0  0  0  0  0
   27.7900   28.2700   35.6200 N   0  0  0  0  0  0  0  0  0  0  0  0
   28.5400   28.3000   34.5100 C   0  0  0  0  0  0  0  0  0  0  0  0
   29.7700   28.9400   34.5600 C   0  0  0  0  0  0  0  0  0  0  0  0
   30.7000   28.8900   33.5000 C   0  0  0  0  0  0  0  0  0  0  0  0
   30.3700   28.1400   32.3700 C   0  0  0  0  0  0  0  0  0  0  0  0
   29.1200   27.5200   32.2800 C   0  0  0  0  0  0  0  0  0  0  0  0
   28.2100   27.6100   33.3300 C   0  0  0  0  0  0  0  0  0  0  0  0
   26.9700   26.9700   33.3100 C   0  0  0  0  0  0  0  0  0  0  0  0
   26.5300   26.2400   32.2200 N   0  0  0  0  0  0  0  0  0  0  0  0
   30.1349   29.6922   35.7339 N   0  0  0  0  0  0  0  0  0  0  0  0
   31.3947   29.5134   36.4400 C   0  0  0  0  0  0  0  0  0  0  0  0
   31.3390   30.4855   37.6109 C   0  0  0  0  0  0  0  0  0  0  0  0
   30.3175   31.5646   37.1861 C   0  0  1  0  0  0  0  0  0  0  0  0
   29.3641   30.8210   36.2362 C   0  0  0  0  0  0  0  0  0  0  0  0
   29.6119   32.2016   38.3956 C   0  0  0  0  0  0  0  0  0  0  0  0
   30.4614   33.4141   38.7589 C   0  0  0  0  0  0  0  0  0  0  0  0
   31.2218   33.7342   37.5600 N   0  0  0  0  0  0  0  0  0  0  0  0
   31.0294   32.7503   36.5040 C   0  0  0  0  0  0  0  0  0  0  0  0
   31.8698   35.0058   37.3684 C   0  0  0  0  0  0  0  0  0  0  0  0
   31.6240   35.9556   38.1614 O   0  0  0  0  0  0  0  0  0  0  0  0
   32.8031   35.2380   36.2496 C   0  0  0  0  0  0  0  0  0  0  0  0
   32.6503   36.3715   35.4336 C   0  0  0  0  0  0  0  0  0  0  0  0
   33.5337   36.6012   34.3734 C   0  0  0  0  0  0  0  0  0  0  0  0
   34.5862   35.7126   34.1345 C   0  0  0  0  0  0  0  0  0  0  0  0
   34.7593   34.5951   34.9573 C   0  0  0  0  0  0  0  0  0  0  0  0
   33.8741   34.3592   36.0148 C   0  0  0  0  0  0  0  0  0  0  0  0
  1  2  1  0
  2  3  2  0
  2  4  1  0
  4  5  2  0
  5  6  1  0
  6  7  2  0
  7  8  1  0
  8  9  2  0
  9 10  1  0
 10 11  2  0
 11 12  1  0
 12 13  2  0
 13 14  1  0
  8 15  1  0
 15 16  1  0
 16 17  1  0
 18 17  1  1
 18 19  1  0
 18 20  1  0
 20 21  1  0
 21 22  1  0
 22 23  1  0
 22 24  1  0
 24 25  2  0
 24 26  1  0
 26 27  2  0
 27 28  1  0
 28 29  2  0
 29 30  1  0
 30 31  2  0
 13  4  1  0
 19 15  1  0
 31 26  1  0
 12  7  1  0
 23 18  1  0
M  END
>  <AAScore>  (1) 
-8.858811703771682

>  <RootName>  (1) 
./4ZLY/04_DeltaGEst/trajectory_04/rank_01/lead_0213

$$$$
