confid_12
     RDKit          3D

 28 31  0  0  0  0  0  0  0  0999 V2000
   24.5500   26.3900   36.2500 N   0  0  0  0  0  0  0  0  0  0  0  0
   25.6000   26.1300   35.4000 C   0  0  0  0  0  0  0  0  0  0  0  0
   25.4300   25.4300   34.4200 O   0  0  0  0  0  0  0  0  0  0  0  0
   26.9800   26.6300   35.7100 C   0  0  0  0  0  0  0  0  0  0  0  0
   27.3200   26.8200   36.9800 N   0  0  0  0  0  0  0  0  0  0  0  0
   28.4700   27.4000   37.3100 N   0  0  0  0  0  0  0  0  0  0  0  0
   29.4000   27.6300   36.3700 C   0  0  0  0  0  0  0  0  0  0  0  0
   30.6600   28.0500   36.8000 C   0  0  0  0  0  0  0  0  0  0  0  0
   31.5700   28.3600   35.7800 C   0  0  0  0  0  0  0  0  0  0  0  0
   31.3700   28.1000   34.4300 C   0  0  0  0  0  0  0  0  0  0  0  0
   30.1200   27.5900   34.0500 C   0  0  0  0  0  0  0  0  0  0  0  0
   29.1500   27.3400   35.0300 C   0  0  0  0  0  0  0  0  0  0  0  0
   27.8800   26.8900   34.6600 C   0  0  0  0  0  0  0  0  0  0  0  0
   27.4800   26.6100   33.3700 N   0  0  0  0  0  0  0  0  0  0  0  0
   23.2112   25.8089   36.0818 C   0  0  0  0  0  0  0  0  0  0  0  0
   22.1222   26.8442   36.4496 C   0  0  0  0  0  0  0  0  0  0  0  0
   20.9016   26.2072   37.1424 C   0  0  0  0  0  0  0  0  0  0  0  0
   20.5862   24.8689   36.6037 N   0  0  0  0  0  0  0  0  0  0  0  0
   20.0629   24.9211   35.2186 C   0  0  0  0  0  0  0  0  0  0  0  0
   19.0061   23.8135   34.9948 C   0  0  0  0  0  0  0  0  0  0  0  0
   18.5642   23.7345   33.5221 C   0  0  0  0  0  0  0  0  0  0  0  0
   17.6214   24.8871   33.1337 C   0  0  0  0  0  0  0  0  0  0  0  0
   16.4589   25.0086   34.0376 N   0  0  0  0  0  0  0  0  0  0  0  0
   15.4507   23.9593   33.8095 C   0  0  0  0  0  0  0  0  0  0  0  0
   16.8550   25.1183   35.4569 C   0  0  0  0  0  0  0  0  0  0  0  0
   17.7772   23.9735   35.9114 C   0  0  0  0  0  0  0  0  0  0  0  0
   21.6966   23.8937   36.7757 C   0  0  0  0  0  0  0  0  0  0  0  0
   23.0868   24.5442   36.9385 C   0  0  0  0  0  0  0  0  0  0  0  0
  1  2  1  0
  2  3  2  0
  2  4  1  0
  4  5  2  0
  5  6  1  0
  6  7  2  0
  7  8  1  0
  8  9  2  0
  9 10  1  0
 10 11  2  0
 11 12  1  0
 12 13  2  0
 13 14  1  0
  1 15  1  0
 15 16  1  0
 16 17  1  0
 17 18  1  0
 18 19  1  0
 19 20  1  0
 20 21  1  0
 21 22  1  0
 22 23  1  0
 23 24  1  0
 23 25  1  0
 25 26  1  0
 18 27  1  0
 27 28  1  0
 13  4  1  0
 28 15  1  0
 12  7  1  0
 26 20  1  0
M  END
>  <AAScore>  (1) 
2894.261033461927

>  <RootName>  (1) 
./4ZLY/04_DeltaGEst/trajectory_01/rank_00/lead_0080

$$$$
