confid_5
     RDKit          3D

 27 30  0  0  0  0  0  0  0  0999 V2000
   25.3300   26.2600   34.7600 N   0  0  0  0  0  0  0  0  0  0  0  0
   26.1200   25.9200   33.6900 C   0  0  0  0  0  0  0  0  0  0  0  0
   25.6300   25.1100   32.9400 O   0  0  0  0  0  0  0  0  0  0  0  0
   27.5200   26.3800   33.4600 C   0  0  0  0  0  0  0  0  0  0  0  0
   28.1600   26.6300   34.6100 N   0  0  0  0  0  0  0  0  0  0  0  0
   29.4800   26.8500   34.5700 N   0  0  0  0  0  0  0  0  0  0  0  0
   30.1900   26.7800   33.4400 C   0  0  0  0  0  0  0  0  0  0  0  0
   31.5600   27.0500   33.5000 C   0  0  0  0  0  0  0  0  0  0  0  0
   32.2700   27.2400   32.3100 C   0  0  0  0  0  0  0  0  0  0  0  0
   31.6100   27.2500   31.0800 C   0  0  0  0  0  0  0  0  0  0  0  0
   30.2700   26.8700   31.0600 C   0  0  0  0  0  0  0  0  0  0  0  0
   29.5100   26.6900   32.2300 C   0  0  0  0  0  0  0  0  0  0  0  0
   28.1400   26.4100   32.2000 C   0  0  0  0  0  0  0  0  0  0  0  0
   27.4300   26.1300   31.0500 N   0  0  0  0  0  0  0  0  0  0  0  0
   24.1887   25.5122   35.2283 C   0  0  0  0  0  0  0  0  0  0  0  0
   24.0607   24.1932   34.9160 N   0  0  0  0  0  0  0  0  0  0  0  0
   23.0384   23.4318   35.3813 C   0  0  0  0  0  0  0  0  0  0  0  0
   22.0731   23.9870   36.2276 C   0  0  0  0  0  0  0  0  0  0  0  0
   20.9807   23.1119   36.7845 C   0  0  0  0  0  0  0  0  0  0  0  0
   19.8425   23.9398   37.3822 C   0  0  0  0  0  0  0  0  0  0  0  0
   20.3991   24.9734   38.2722 N   0  0  0  0  0  0  0  0  0  0  0  0
   21.1396   25.9791   37.4842 C   0  0  0  0  0  0  0  0  0  0  0  0
   22.1941   25.3378   36.6089 C   0  0  0  0  0  0  0  0  0  0  0  0
   23.2380   26.1159   36.0748 C   0  0  0  0  0  0  0  0  0  0  0  0
   23.3205   27.4754   36.3905 O   0  0  0  0  0  0  0  0  0  0  0  0
   23.0038   28.4839   35.4384 C   0  0  0  0  0  0  0  0  0  0  0  0
   19.3183   25.6251   39.0277 C   0  0  0  0  0  0  0  0  0  0  0  0
  1  2  1  0
  2  3  2  0
  2  4  1  0
  4  5  2  0
  5  6  1  0
  6  7  2  0
  7  8  1  0
  8  9  2  0
  9 10  1  0
 10 11  2  0
 11 12  1  0
 12 13  2  0
 13 14  1  0
  1 15  1  0
 15 16  2  0
 16 17  1  0
 17 18  2  0
 18 19  1  0
 19 20  1  0
 20 21  1  0
 21 22  1  0
 22 23  1  0
 23 24  2  0
 24 25  1  0
 25 26  1  0
 21 27  1  0
 13  4  1  0
 24 15  1  0
 12  7  1  0
 23 18  1  0
M  END
>  <AAScore>  (1) 
2886.9693096077185

>  <RootName>  (1) 
./4ZLY/04_DeltaGEst/trajectory_03/rank_00/lead_0228

$$$$
