confid_13
     RDKit          3D

 27 30  0  0  0  0  0  0  0  0999 V2000
   24.6900   26.1200   35.5300 N   0  0  0  0  0  0  0  0  0  0  0  0
   25.6600   25.6700   34.6600 C   0  0  0  0  0  0  0  0  0  0  0  0
   25.2400   25.0100   33.7200 O   0  0  0  0  0  0  0  0  0  0  0  0
   27.0300   26.2200   34.8800 C   0  0  0  0  0  0  0  0  0  0  0  0
   27.3500   26.7300   36.0700 N   0  0  0  0  0  0  0  0  0  0  0  0
   28.5700   27.1800   36.3300 N   0  0  0  0  0  0  0  0  0  0  0  0
   29.5300   27.1100   35.3900 C   0  0  0  0  0  0  0  0  0  0  0  0
   30.8300   27.5700   35.6500 C   0  0  0  0  0  0  0  0  0  0  0  0
   31.8500   27.5400   34.6900 C   0  0  0  0  0  0  0  0  0  0  0  0
   31.5100   27.1200   33.4000 C   0  0  0  0  0  0  0  0  0  0  0  0
   30.2200   26.6300   33.1100 C   0  0  0  0  0  0  0  0  0  0  0  0
   29.2400   26.6600   34.1000 C   0  0  0  0  0  0  0  0  0  0  0  0
   27.9300   26.2600   33.8100 C   0  0  0  0  0  0  0  0  0  0  0  0
   27.5200   25.7100   32.6100 N   0  0  0  0  0  0  0  0  0  0  0  0
   23.3177   26.3656   35.1742 C   0  0  0  0  0  0  0  0  0  0  0  0
   22.4158   26.6544   36.1497 N   0  0  0  0  0  0  0  0  0  0  0  0
   21.1182   26.9198   35.8515 C   0  0  0  0  0  0  0  0  0  0  0  0
   20.6907   26.9127   34.5203 C   0  0  0  0  0  0  0  0  0  0  0  0
   19.2502   27.1502   34.1770 C   0  0  0  0  0  0  0  0  0  0  0  0
   19.0827   27.4818   32.6929 C   0  0  0  0  0  0  0  0  0  0  0  0
   19.7774   26.4701   31.8602 N   0  0  0  0  0  0  0  0  0  0  0  0
   21.2434   26.6034   32.0678 C   0  0  0  0  0  0  0  0  0  0  0  0
   21.6251   26.5946   33.5256 C   0  0  0  0  0  0  0  0  0  0  0  0
   22.9161   26.3497   33.8733 N   0  0  0  0  0  0  0  0  0  0  0  0
   19.3870   26.6072   30.4215 C   0  0  0  0  0  0  0  0  0  0  0  0
   17.9409   26.1123   30.2065 C   0  0  0  0  0  0  0  0  0  0  0  0
   20.3024   25.8029   29.4704 C   0  0  0  0  0  0  0  0  0  0  0  0
  1  2  1  0
  2  3  2  0
  2  4  1  0
  4  5  2  0
  5  6  1  0
  6  7  2  0
  7  8  1  0
  8  9  2  0
  9 10  1  0
 10 11  2  0
 11 12  1  0
 12 13  2  0
 13 14  1  0
  1 15  1  0
 15 16  2  0
 16 17  1  0
 17 18  2  0
 18 19  1  0
 19 20  1  0
 20 21  1  0
 21 22  1  0
 22 23  1  0
 23 24  2  0
 21 25  1  0
 25 26  1  0
 25 27  1  0
 13  4  1  0
 24 15  1  0
 12  7  1  0
 23 18  1  0
M  END
>  <AAScore>  (1) 
197.61866216111784

>  <RootName>  (1) 
./4ZLY/04_DeltaGEst/trajectory_02/rank_00/lead_0464

$$$$
