confid_17
     RDKit          3D

 27 30  0  0  0  0  0  0  0  0999 V2000
   24.5500   26.3900   36.2500 N   0  0  0  0  0  0  0  0  0  0  0  0
   25.6000   26.1300   35.4000 C   0  0  0  0  0  0  0  0  0  0  0  0
   25.4300   25.4300   34.4200 O   0  0  0  0  0  0  0  0  0  0  0  0
   26.9800   26.6300   35.7100 C   0  0  0  0  0  0  0  0  0  0  0  0
   27.3200   26.8200   36.9800 N   0  0  0  0  0  0  0  0  0  0  0  0
   28.4700   27.4000   37.3100 N   0  0  0  0  0  0  0  0  0  0  0  0
   29.4000   27.6300   36.3700 C   0  0  0  0  0  0  0  0  0  0  0  0
   30.6600   28.0500   36.8000 C   0  0  0  0  0  0  0  0  0  0  0  0
   31.5700   28.3600   35.7800 C   0  0  0  0  0  0  0  0  0  0  0  0
   31.3700   28.1000   34.4300 C   0  0  0  0  0  0  0  0  0  0  0  0
   30.1200   27.5900   34.0500 C   0  0  0  0  0  0  0  0  0  0  0  0
   29.1500   27.3400   35.0300 C   0  0  0  0  0  0  0  0  0  0  0  0
   27.8800   26.8900   34.6600 C   0  0  0  0  0  0  0  0  0  0  0  0
   27.4800   26.6100   33.3700 N   0  0  0  0  0  0  0  0  0  0  0  0
   30.9759   28.2917   38.1807 N   0  0  0  0  0  0  0  0  0  0  0  0
   32.0167   27.5169   38.8490 C   0  0  0  0  0  0  0  0  0  0  0  0
   31.3773   26.7228   39.9863 C   0  0  0  0  0  0  0  0  0  0  0  0
   30.5244   27.5729   40.8326 N   0  0  0  0  0  0  0  0  0  0  0  0
   29.8852   28.7573   40.3032 C   0  0  0  0  0  0  0  0  0  0  0  0
   29.0445   29.3899   40.9990 O   0  0  0  0  0  0  0  0  0  0  0  0
   30.2701   29.3087   38.9593 C   0  0  0  0  0  0  0  0  0  0  0  0
   30.1266   27.0580   42.1144 C   0  0  0  0  0  0  0  0  0  0  0  0
   28.7943   26.6752   42.3444 C   0  0  0  0  0  0  0  0  0  0  0  0
   28.4155   26.1566   43.5868 C   0  0  0  0  0  0  0  0  0  0  0  0
   29.3630   26.0157   44.6054 C   0  0  0  0  0  0  0  0  0  0  0  0
   30.6919   26.3895   44.3814 C   0  0  0  0  0  0  0  0  0  0  0  0
   31.0749   26.9056   43.1384 C   0  0  0  0  0  0  0  0  0  0  0  0
  1  2  1  0
  2  3  2  0
  2  4  1  0
  4  5  2  0
  5  6  1  0
  6  7  2  0
  7  8  1  0
  8  9  2  0
  9 10  1  0
 10 11  2  0
 11 12  1  0
 12 13  2  0
 13 14  1  0
  8 15  1  0
 15 16  1  0
 16 17  1  0
 17 18  1  0
 18 19  1  0
 19 20  2  0
 19 21  1  0
 18 22  1  0
 22 23  2  0
 23 24  1  0
 24 25  2  0
 25 26  1  0
 26 27  2  0
 13  4  1  0
 21 15  1  0
 27 22  1  0
 12  7  1  0
M  END
>  <AAScore>  (1) 
14.586377890594653

>  <RootName>  (1) 
./4ZLY/04_DeltaGEst/trajectory_01/rank_01/lead_0158

$$$$
