confid_4
     RDKit          3D

 29 33  0  0  0  0  0  0  0  0999 V2000
   25.3300   26.2600   34.7600 N   0  0  0  0  0  0  0  0  0  0  0  0
   26.1200   25.9200   33.6900 C   0  0  0  0  0  0  0  0  0  0  0  0
   25.6300   25.1100   32.9400 O   0  0  0  0  0  0  0  0  0  0  0  0
   27.5200   26.3800   33.4600 C   0  0  0  0  0  0  0  0  0  0  0  0
   28.1600   26.6300   34.6100 N   0  0  0  0  0  0  0  0  0  0  0  0
   29.4800   26.8500   34.5700 N   0  0  0  0  0  0  0  0  0  0  0  0
   30.1900   26.7800   33.4400 C   0  0  0  0  0  0  0  0  0  0  0  0
   31.5600   27.0500   33.5000 C   0  0  0  0  0  0  0  0  0  0  0  0
   32.2700   27.2400   32.3100 C   0  0  0  0  0  0  0  0  0  0  0  0
   31.6100   27.2500   31.0800 C   0  0  0  0  0  0  0  0  0  0  0  0
   30.2700   26.8700   31.0600 C   0  0  0  0  0  0  0  0  0  0  0  0
   29.5100   26.6900   32.2300 C   0  0  0  0  0  0  0  0  0  0  0  0
   28.1400   26.4100   32.2000 C   0  0  0  0  0  0  0  0  0  0  0  0
   27.4300   26.1300   31.0500 N   0  0  0  0  0  0  0  0  0  0  0  0
   24.1838   25.5294   35.2364 C   0  0  0  0  0  0  0  0  0  0  0  0
   23.3276   26.1578   35.9983 N   0  0  0  0  0  0  0  0  0  0  0  0
   22.1478   25.5623   36.5478 C   0  0  0  0  0  0  0  0  0  0  0  0
   21.2546   25.0140   35.7369 C   0  0  0  0  0  0  0  0  0  0  0  0
   20.0626   24.1066   35.7683 C   0  0  0  0  0  0  0  0  0  0  0  0
   19.9503   24.0035   34.3818 O   0  0  0  0  0  0  0  0  0  0  0  0
   21.0073   24.9028   34.2590 C   0  0  2  0  0  0  0  0  0  0  0  0
   22.1857   24.3486   33.4296 C   0  0  0  0  0  0  0  0  0  0  0  0
   23.1585   23.4959   34.2234 C   0  0  0  0  0  0  0  0  0  0  0  0
   24.1005   24.0432   35.0404 C   0  0  0  0  0  0  0  0  0  0  0  0
   25.0159   23.1866   35.7762 N   0  0  0  0  0  0  0  0  0  0  0  0
   25.0168   21.7294   35.5755 C   0  0  0  0  0  0  0  0  0  0  0  0
   23.6237   21.2350   35.2034 C   0  0  0  0  0  0  0  0  0  0  0  0
   23.1198   22.0061   33.9883 C   0  0  0  0  0  0  0  0  0  0  0  0
   26.0338   23.7709   36.6561 C   0  0  0  0  0  0  0  0  0  0  0  0
  1  2  1  0
  2  3  2  0
  2  4  1  0
  4  5  2  0
  5  6  1  0
  6  7  2  0
  7  8  1  0
  8  9  2  0
  9 10  1  0
 10 11  2  0
 11 12  1  0
 12 13  2  0
 13 14  1  0
  1 15  1  0
 15 16  2  0
 16 17  1  0
 17 18  2  0
 18 19  1  0
 19 20  1  0
 20 21  1  0
 21 22  1  6
 22 23  1  0
 23 24  2  0
 24 25  1  0
 25 26  1  0
 26 27  1  0
 27 28  1  0
 25 29  1  0
 13  4  1  0
 24 15  1  0
 12  7  1  0
 21 18  1  0
 28 23  1  0
M  END
>  <AAScore>  (1) 
23807.74784200287

>  <RootName>  (1) 
./4ZLY/04_DeltaGEst/trajectory_03/rank_00/lead_0435

$$$$
