confid_17
     RDKit          3D

 28 32  0  0  0  0  0  0  0  0999 V2000
   24.5500   26.3900   36.2500 N   0  0  0  0  0  0  0  0  0  0  0  0
   25.6000   26.1300   35.4000 C   0  0  0  0  0  0  0  0  0  0  0  0
   25.4300   25.4300   34.4200 O   0  0  0  0  0  0  0  0  0  0  0  0
   26.9800   26.6300   35.7100 C   0  0  0  0  0  0  0  0  0  0  0  0
   27.3200   26.8200   36.9800 N   0  0  0  0  0  0  0  0  0  0  0  0
   28.4700   27.4000   37.3100 N   0  0  0  0  0  0  0  0  0  0  0  0
   29.4000   27.6300   36.3700 C   0  0  0  0  0  0  0  0  0  0  0  0
   30.6600   28.0500   36.8000 C   0  0  0  0  0  0  0  0  0  0  0  0
   31.5700   28.3600   35.7800 C   0  0  0  0  0  0  0  0  0  0  0  0
   31.3700   28.1000   34.4300 C   0  0  0  0  0  0  0  0  0  0  0  0
   30.1200   27.5900   34.0500 C   0  0  0  0  0  0  0  0  0  0  0  0
   29.1500   27.3400   35.0300 C   0  0  0  0  0  0  0  0  0  0  0  0
   27.8800   26.8900   34.6600 C   0  0  0  0  0  0  0  0  0  0  0  0
   27.4800   26.6100   33.3700 N   0  0  0  0  0  0  0  0  0  0  0  0
   23.2548   25.7739   36.1525 C   0  0  0  0  0  0  0  0  0  0  0  0
   22.3106   26.2497   36.9162 N   0  0  0  0  0  0  0  0  0  0  0  0
   20.9418   25.8642   36.9057 C   0  0  0  0  0  0  0  0  0  0  0  0
   20.2566   26.1780   35.8296 C   0  0  0  0  0  0  0  0  0  0  0  0
   20.3280   26.7562   34.4268 C   0  0  1  0  0  0  0  0  0  0  0  0
   21.2627   25.8796   33.5675 C   0  0  0  0  0  0  0  0  0  0  0  0
   21.2807   24.4629   33.9761 N   0  0  0  0  0  0  0  0  0  0  0  0
   20.2728   23.5498   33.4111 C   0  0  0  0  0  0  0  0  0  0  0  0
   20.8933   22.4376   32.7999 O   0  0  0  0  0  0  0  0  0  0  0  0
   21.5500   21.6727   33.7895 C   0  0  0  0  0  0  0  0  0  0  0  0
   22.7442   22.4371   34.3602 C   0  0  0  0  0  0  0  0  0  0  0  0
   22.3688   23.8487   34.7122 C   0  0  0  0  0  0  0  0  0  0  0  0
   23.1670   24.4669   35.5444 N   0  0  0  0  0  0  0  0  0  0  0  0
   19.0529   26.3012   34.8950 C   0  0  0  0  0  0  0  0  0  0  0  0
  1  2  1  0
  2  3  2  0
  2  4  1  0
  4  5  2  0
  5  6  1  0
  6  7  2  0
  7  8  1  0
  8  9  2  0
  9 10  1  0
 10 11  2  0
 11 12  1  0
 12 13  2  0
 13 14  1  0
  1 15  1  0
 15 16  2  0
 16 17  1  0
 17 18  2  0
 18 19  1  0
 19 20  1  6
 20 21  1  0
 21 22  1  0
 22 23  1  0
 23 24  1  0
 24 25  1  0
 25 26  1  0
 26 27  2  0
 19 28  1  0
 13  4  1  0
 27 15  1  0
 12  7  1  0
 28 18  1  0
 26 21  1  0
M  END
>  <AAScore>  (1) 
853.395303448347

>  <RootName>  (1) 
./4ZLY/04_DeltaGEst/trajectory_01/rank_00/lead_0249

$$$$
