confid_0
     RDKit          3D

 31 35  0  0  0  0  0  0  0  0999 V2000
   25.3300   26.2600   34.7600 N   0  0  0  0  0  0  0  0  0  0  0  0
   26.1200   25.9200   33.6900 C   0  0  0  0  0  0  0  0  0  0  0  0
   25.6300   25.1100   32.9400 O   0  0  0  0  0  0  0  0  0  0  0  0
   27.5200   26.3800   33.4600 C   0  0  0  0  0  0  0  0  0  0  0  0
   28.1600   26.6300   34.6100 N   0  0  0  0  0  0  0  0  0  0  0  0
   29.4800   26.8500   34.5700 N   0  0  0  0  0  0  0  0  0  0  0  0
   30.1900   26.7800   33.4400 C   0  0  0  0  0  0  0  0  0  0  0  0
   31.5600   27.0500   33.5000 C   0  0  0  0  0  0  0  0  0  0  0  0
   32.2700   27.2400   32.3100 C   0  0  0  0  0  0  0  0  0  0  0  0
   31.6100   27.2500   31.0800 C   0  0  0  0  0  0  0  0  0  0  0  0
   30.2700   26.8700   31.0600 C   0  0  0  0  0  0  0  0  0  0  0  0
   29.5100   26.6900   32.2300 C   0  0  0  0  0  0  0  0  0  0  0  0
   28.1400   26.4100   32.2000 C   0  0  0  0  0  0  0  0  0  0  0  0
   27.4300   26.1300   31.0500 N   0  0  0  0  0  0  0  0  0  0  0  0
   26.6025   27.1793   30.4447 C   0  0  0  0  0  0  0  0  0  0  0  0
   26.8462   27.2265   28.9335 C   0  0  0  0  0  0  0  0  0  0  0  0
   26.8122   25.8823   28.3416 N   0  0  0  0  0  0  0  0  0  0  0  0
   26.9055   25.7275   26.9171 C   0  0  0  0  0  0  0  0  0  0  0  0
   26.1529   24.9144   26.3219 O   0  0  0  0  0  0  0  0  0  0  0  0
   27.9491   26.4286   26.1516 C   0  0  0  0  0  0  0  0  0  0  0  0
   29.1681   25.7897   25.7879 C   0  0  0  0  0  0  0  0  0  0  0  0
   29.4812   24.3882   26.2340 C   0  0  0  0  0  0  0  0  0  0  0  0
   30.1378   26.5105   25.0461 C   0  0  0  0  0  0  0  0  0  0  0  0
   29.9112   27.8421   24.6658 C   0  0  0  0  0  0  0  0  0  0  0  0
   28.7100   28.4304   25.0447 C   0  0  0  0  0  0  0  0  0  0  0  0
   28.2765   29.7218   24.8079 O   0  0  0  0  0  0  0  0  0  0  0  0
   26.9771   29.8679   25.3936 C   0  0  0  0  0  0  0  0  0  0  0  0
   26.6889   28.5901   25.9785 O   0  0  0  0  0  0  0  0  0  0  0  0
   27.7677   27.7549   25.7492 C   0  0  0  0  0  0  0  0  0  0  0  0
   26.6337   24.6979   29.1910 C   0  0  0  0  0  0  0  0  0  0  0  0
   27.5367   24.8029   30.4256 C   0  0  0  0  0  0  0  0  0  0  0  0
  1  2  1  0
  2  3  2  0
  2  4  1  0
  4  5  2  0
  5  6  1  0
  6  7  2  0
  7  8  1  0
  8  9  2  0
  9 10  1  0
 10 11  2  0
 11 12  1  0
 12 13  2  0
 13 14  1  0
 14 15  1  0
 15 16  1  0
 16 17  1  0
 17 18  1  0
 18 19  2  0
 18 20  1  0
 20 21  2  0
 21 22  1  0
 21 23  1  0
 23 24  2  0
 24 25  1  0
 25 26  1  0
 26 27  1  0
 27 28  1  0
 28 29  1  0
 17 30  1  0
 30 31  1  0
 13  4  1  0
 31 14  1  0
 12  7  1  0
 29 20  1  0
 29 25  2  0
M  END
>  <AAScore>  (1) 
-0.2742822335644858

>  <RootName>  (1) 
./4ZLY/04_DeltaGEst/trajectory_03/rank_01/lead_0075

$$$$
