confid_2
     RDKit          3D

 28 31  0  0  0  0  0  0  0  0999 V2000
   24.6900   26.1200   35.5300 N   0  0  0  0  0  0  0  0  0  0  0  0
   25.6600   25.6700   34.6600 C   0  0  0  0  0  0  0  0  0  0  0  0
   25.2400   25.0100   33.7200 O   0  0  0  0  0  0  0  0  0  0  0  0
   27.0300   26.2200   34.8800 C   0  0  0  0  0  0  0  0  0  0  0  0
   27.3500   26.7300   36.0700 N   0  0  0  0  0  0  0  0  0  0  0  0
   28.5700   27.1800   36.3300 N   0  0  0  0  0  0  0  0  0  0  0  0
   29.5300   27.1100   35.3900 C   0  0  0  0  0  0  0  0  0  0  0  0
   30.8300   27.5700   35.6500 C   0  0  0  0  0  0  0  0  0  0  0  0
   31.8500   27.5400   34.6900 C   0  0  0  0  0  0  0  0  0  0  0  0
   31.5100   27.1200   33.4000 C   0  0  0  0  0  0  0  0  0  0  0  0
   30.2200   26.6300   33.1100 C   0  0  0  0  0  0  0  0  0  0  0  0
   29.2400   26.6600   34.1000 C   0  0  0  0  0  0  0  0  0  0  0  0
   27.9300   26.2600   33.8100 C   0  0  0  0  0  0  0  0  0  0  0  0
   27.5200   25.7100   32.6100 N   0  0  0  0  0  0  0  0  0  0  0  0
   23.2737   25.8956   35.3617 C   0  0  0  0  0  0  0  0  0  0  0  0
   22.7384   25.9146   34.1096 N   0  0  0  0  0  0  0  0  0  0  0  0
   21.4109   25.7727   33.8812 C   0  0  0  0  0  0  0  0  0  0  0  0
   20.5255   25.6450   34.9538 C   0  0  0  0  0  0  0  0  0  0  0  0
   19.0606   25.4666   34.7010 C   0  0  0  0  0  0  0  0  0  0  0  0
   18.2581   26.2121   35.7593 C   0  0  0  0  0  0  0  0  0  0  0  0
   18.6555   25.7887   37.1122 N   0  0  0  0  0  0  0  0  0  0  0  0
   17.7024   25.8135   38.1998 C   0  0  0  0  0  0  0  0  0  0  0  0
   18.0221   25.3390   39.3246 O   0  0  0  0  0  0  0  0  0  0  0  0
   16.3243   26.3811   38.0341 C   0  0  0  0  0  0  0  0  0  0  0  0
   20.0619   25.4825   37.4378 C   0  0  0  0  0  0  0  0  0  0  0  0
   21.0233   25.6349   36.2700 C   0  0  0  0  0  0  0  0  0  0  0  0
   22.4255   25.7117   36.4815 C   0  0  0  0  0  0  0  0  0  0  0  0
   23.0096   25.6223   37.8725 C   0  0  0  0  0  0  0  0  0  0  0  0
  1  2  1  0
  2  3  2  0
  2  4  1  0
  4  5  2  0
  5  6  1  0
  6  7  2  0
  7  8  1  0
  8  9  2  0
  9 10  1  0
 10 11  2  0
 11 12  1  0
 12 13  2  0
 13 14  1  0
  1 15  1  0
 15 16  2  0
 16 17  1  0
 17 18  2  0
 18 19  1  0
 19 20  1  0
 20 21  1  0
 21 22  1  0
 22 23  2  0
 22 24  1  0
 21 25  1  0
 25 26  1  0
 26 27  2  0
 27 28  1  0
 13  4  1  0
 27 15  1  0
 12  7  1  0
 26 18  1  0
M  END
>  <AAScore>  (1) 
1707.2743091448497

>  <RootName>  (1) 
./4ZLY/04_DeltaGEst/trajectory_02/rank_00/lead_0253

$$$$
