confid_10
     RDKit          3D

 31 34  0  0  0  0  0  0  0  0999 V2000
   25.3300   26.2600   34.7600 N   0  0  0  0  0  0  0  0  0  0  0  0
   26.1200   25.9200   33.6900 C   0  0  0  0  0  0  0  0  0  0  0  0
   25.6300   25.1100   32.9400 O   0  0  0  0  0  0  0  0  0  0  0  0
   27.5200   26.3800   33.4600 C   0  0  0  0  0  0  0  0  0  0  0  0
   28.1600   26.6300   34.6100 N   0  0  0  0  0  0  0  0  0  0  0  0
   29.4800   26.8500   34.5700 N   0  0  0  0  0  0  0  0  0  0  0  0
   30.1900   26.7800   33.4400 C   0  0  0  0  0  0  0  0  0  0  0  0
   31.5600   27.0500   33.5000 C   0  0  0  0  0  0  0  0  0  0  0  0
   32.2700   27.2400   32.3100 C   0  0  0  0  0  0  0  0  0  0  0  0
   31.6100   27.2500   31.0800 C   0  0  0  0  0  0  0  0  0  0  0  0
   30.2700   26.8700   31.0600 C   0  0  0  0  0  0  0  0  0  0  0  0
   29.5100   26.6900   32.2300 C   0  0  0  0  0  0  0  0  0  0  0  0
   28.1400   26.4100   32.2000 C   0  0  0  0  0  0  0  0  0  0  0  0
   27.4300   26.1300   31.0500 N   0  0  0  0  0  0  0  0  0  0  0  0
   23.9719   25.8304   34.9593 C   0  0  0  0  0  0  0  0  0  0  0  0
   23.5941   25.3893   36.1814 N   0  0  0  0  0  0  0  0  0  0  0  0
   22.3270   24.9863   36.4445 C   0  0  0  0  0  0  0  0  0  0  0  0
   21.3280   25.0086   35.4495 C   0  0  0  0  0  0  0  0  0  0  0  0
   19.9187   24.6532   35.9275 C   0  0  0  0  0  0  0  0  0  0  0  0
   19.0056   23.8545   34.9714 C   0  0  0  0  0  0  0  0  0  0  0  0
   18.1016   24.6788   34.1437 N   0  0  0  0  0  0  0  0  0  0  0  0
   17.9416   26.0935   34.3355 C   0  0  0  0  0  0  0  0  0  0  0  0
   16.8177   26.5482   34.6833 O   0  0  0  0  0  0  0  0  0  0  0  0
   19.0546   26.9892   34.1577 N   0  0  0  0  0  0  0  0  0  0  0  0
   19.1638   28.1864   35.0020 C   0  0  0  0  0  0  0  0  0  0  0  0
   18.4627   29.3759   34.3515 C   0  0  0  0  0  0  0  0  0  0  0  0
   19.9070   26.8690   32.9674 C   0  0  0  0  0  0  0  0  0  0  0  0
   20.7571   25.5947   32.9657 C   0  0  0  0  0  0  0  0  0  0  0  0
   21.6946   25.4958   34.1540 C   0  0  0  0  0  0  0  0  0  0  0  0
   23.0234   25.9103   33.9356 C   0  0  0  0  0  0  0  0  0  0  0  0
   17.1849   24.0077   33.2222 C   0  0  0  0  0  0  0  0  0  0  0  0
  1  2  1  0
  2  3  2  0
  2  4  1  0
  4  5  2  0
  5  6  1  0
  6  7  2  0
  7  8  1  0
  8  9  2  0
  9 10  1  0
 10 11  2  0
 11 12  1  0
 12 13  2  0
 13 14  1  0
  1 15  1  0
 15 16  2  0
 16 17  1  0
 17 18  2  0
 18 19  1  0
 19 20  1  0
 20 21  1  0
 21 22  1  0
 22 23  2  0
 22 24  1  0
 24 25  1  0
 25 26  1  0
 24 27  1  0
 27 28  1  0
 28 29  1  0
 29 30  2  0
 21 31  1  0
 13  4  1  0
 30 15  1  0
 12  7  1  0
 29 18  1  0
M  END
>  <AAScore>  (1) 
22196.367353683152

>  <RootName>  (1) 
./4ZLY/04_DeltaGEst/trajectory_03/rank_00/lead_0359

$$$$
