confid_6
     RDKit          3D

 28 31  0  0  0  0  0  0  0  0999 V2000
   24.5500   26.3900   36.2500 N   0  0  0  0  0  0  0  0  0  0  0  0
   25.6000   26.1300   35.4000 C   0  0  0  0  0  0  0  0  0  0  0  0
   25.4300   25.4300   34.4200 O   0  0  0  0  0  0  0  0  0  0  0  0
   26.9800   26.6300   35.7100 C   0  0  0  0  0  0  0  0  0  0  0  0
   27.3200   26.8200   36.9800 N   0  0  0  0  0  0  0  0  0  0  0  0
   28.4700   27.4000   37.3100 N   0  0  0  0  0  0  0  0  0  0  0  0
   29.4000   27.6300   36.3700 C   0  0  0  0  0  0  0  0  0  0  0  0
   30.6600   28.0500   36.8000 C   0  0  0  0  0  0  0  0  0  0  0  0
   31.5700   28.3600   35.7800 C   0  0  0  0  0  0  0  0  0  0  0  0
   31.3700   28.1000   34.4300 C   0  0  0  0  0  0  0  0  0  0  0  0
   30.1200   27.5900   34.0500 C   0  0  0  0  0  0  0  0  0  0  0  0
   29.1500   27.3400   35.0300 C   0  0  0  0  0  0  0  0  0  0  0  0
   27.8800   26.8900   34.6600 C   0  0  0  0  0  0  0  0  0  0  0  0
   27.4800   26.6100   33.3700 N   0  0  0  0  0  0  0  0  0  0  0  0
   31.0073   28.3122   38.2191 C   0  0  0  0  0  0  0  0  0  0  0  0
   32.1903   27.7903   38.7630 C   0  0  0  0  0  0  0  0  0  0  0  0
   32.5192   28.0451   40.0998 C   0  0  0  0  0  0  0  0  0  0  0  0
   33.7923   27.5413   40.7089 C   0  0  0  0  0  0  0  0  0  0  0  0
   33.5554   27.0865   42.1562 C   0  0  0  0  0  0  0  0  0  0  0  0
   32.7401   28.0428   42.9341 N   0  0  0  0  0  0  0  0  0  0  0  0
   32.6726   27.9251   44.3724 C   0  0  0  0  0  0  0  0  0  0  0  0
   32.3542   28.9286   45.0676 O   0  0  0  0  0  0  0  0  0  0  0  0
   32.8977   26.6122   45.0742 C   0  0  0  0  0  0  0  0  0  0  0  0
   31.6514   25.7381   44.9879 C   0  0  0  0  0  0  0  0  0  0  0  0
   32.0458   29.1721   42.2869 C   0  0  0  0  0  0  0  0  0  0  0  0
   31.6711   28.8447   40.8713 C   0  0  0  0  0  0  0  0  0  0  0  0
   30.5434   29.3689   40.3205 N   0  0  0  0  0  0  0  0  0  0  0  0
   30.1935   29.1199   39.0306 C   0  0  0  0  0  0  0  0  0  0  0  0
  1  2  1  0
  2  3  2  0
  2  4  1  0
  4  5  2  0
  5  6  1  0
  6  7  2  0
  7  8  1  0
  8  9  2  0
  9 10  1  0
 10 11  2  0
 11 12  1  0
 12 13  2  0
 13 14  1  0
  8 15  1  0
 15 16  2  0
 16 17  1  0
 17 18  1  0
 18 19  1  0
 19 20  1  0
 20 21  1  0
 21 22  2  0
 21 23  1  0
 23 24  1  0
 20 25  1  0
 25 26  1  0
 26 27  1  0
 27 28  2  0
 13  4  1  0
 28 15  1  0
 12  7  1  0
 26 17  2  0
M  END
>  <AAScore>  (1) 
1117.64637769339

>  <RootName>  (1) 
./4ZLY/04_DeltaGEst/trajectory_01/rank_01/lead_0437

$$$$
