confid_11
     RDKit          3D

 30 34  0  0  0  0  0  0  0  0999 V2000
   25.3300   26.2600   34.7600 N   0  0  0  0  0  0  0  0  0  0  0  0
   26.1200   25.9200   33.6900 C   0  0  0  0  0  0  0  0  0  0  0  0
   25.6300   25.1100   32.9400 O   0  0  0  0  0  0  0  0  0  0  0  0
   27.5200   26.3800   33.4600 C   0  0  0  0  0  0  0  0  0  0  0  0
   28.1600   26.6300   34.6100 N   0  0  0  0  0  0  0  0  0  0  0  0
   29.4800   26.8500   34.5700 N   0  0  0  0  0  0  0  0  0  0  0  0
   30.1900   26.7800   33.4400 C   0  0  0  0  0  0  0  0  0  0  0  0
   31.5600   27.0500   33.5000 C   0  0  0  0  0  0  0  0  0  0  0  0
   32.2700   27.2400   32.3100 C   0  0  0  0  0  0  0  0  0  0  0  0
   31.6100   27.2500   31.0800 C   0  0  0  0  0  0  0  0  0  0  0  0
   30.2700   26.8700   31.0600 C   0  0  0  0  0  0  0  0  0  0  0  0
   29.5100   26.6900   32.2300 C   0  0  0  0  0  0  0  0  0  0  0  0
   28.1400   26.4100   32.2000 C   0  0  0  0  0  0  0  0  0  0  0  0
   27.4300   26.1300   31.0500 N   0  0  0  0  0  0  0  0  0  0  0  0
   26.5656   27.1411   30.4441 C   0  0  0  0  0  0  0  0  0  0  0  0
   26.9206   27.2929   28.9659 C   0  0  0  0  0  0  0  0  0  0  0  0
   27.0017   25.9780   28.3133 N   0  0  0  0  0  0  0  0  0  0  0  0
   26.7744   25.8923   26.8997 C   0  0  0  0  0  0  0  0  0  0  0  0
   25.9119   24.9120   26.3919 C   0  0  0  0  0  0  0  0  0  0  0  0
   25.7138   24.7946   25.0140 C   0  0  0  0  0  0  0  0  0  0  0  0
   24.8521   23.8671   24.5471 F   0  0  0  0  0  0  0  0  0  0  0  0
   26.3957   25.6432   24.1316 C   0  0  0  0  0  0  0  0  0  0  0  0
   27.2324   26.6364   24.6358 C   0  0  0  0  0  0  0  0  0  0  0  0
   27.4347   26.7577   26.0120 C   0  0  0  0  0  0  0  0  0  0  0  0
   27.8700   27.4945   23.7409 O   0  0  0  0  0  0  0  0  0  0  0  0
   27.5690   27.4371   22.3471 C   0  0  0  0  0  0  0  0  0  0  0  0
   27.3551   26.0963   21.9474 O   0  0  0  0  0  0  0  0  0  0  0  0
   26.2326   25.5552   22.6326 C   0  0  0  0  0  0  0  0  0  0  0  0
   27.7895   24.9087   28.9482 C   0  0  0  0  0  0  0  0  0  0  0  0
   27.4733   24.7975   30.4407 C   0  0  0  0  0  0  0  0  0  0  0  0
  1  2  1  0
  2  3  2  0
  2  4  1  0
  4  5  2  0
  5  6  1  0
  6  7  2  0
  7  8  1  0
  8  9  2  0
  9 10  1  0
 10 11  2  0
 11 12  1  0
 12 13  2  0
 13 14  1  0
 14 15  1  0
 15 16  1  0
 16 17  1  0
 17 18  1  0
 18 19  2  0
 19 20  1  0
 20 21  1  0
 20 22  2  0
 22 23  1  0
 23 24  2  0
 23 25  1  0
 25 26  1  0
 26 27  1  0
 27 28  1  0
 17 29  1  0
 29 30  1  0
 13  4  1  0
 30 14  1  0
 12  7  1  0
 24 18  1  0
 28 22  1  0
M  END
>  <AAScore>  (1) 
-0.8477219820278566

>  <RootName>  (1) 
./4ZLY/04_DeltaGEst/trajectory_03/rank_01/lead_0443

$$$$
