confid_15
     RDKit          3D

 28 31  0  0  0  0  0  0  0  0999 V2000
   25.3300   26.2600   34.7600 N   0  0  0  0  0  0  0  0  0  0  0  0
   26.1200   25.9200   33.6900 C   0  0  0  0  0  0  0  0  0  0  0  0
   25.6300   25.1100   32.9400 O   0  0  0  0  0  0  0  0  0  0  0  0
   27.5200   26.3800   33.4600 C   0  0  0  0  0  0  0  0  0  0  0  0
   28.1600   26.6300   34.6100 N   0  0  0  0  0  0  0  0  0  0  0  0
   29.4800   26.8500   34.5700 N   0  0  0  0  0  0  0  0  0  0  0  0
   30.1900   26.7800   33.4400 C   0  0  0  0  0  0  0  0  0  0  0  0
   31.5600   27.0500   33.5000 C   0  0  0  0  0  0  0  0  0  0  0  0
   32.2700   27.2400   32.3100 C   0  0  0  0  0  0  0  0  0  0  0  0
   31.6100   27.2500   31.0800 C   0  0  0  0  0  0  0  0  0  0  0  0
   30.2700   26.8700   31.0600 C   0  0  0  0  0  0  0  0  0  0  0  0
   29.5100   26.6900   32.2300 C   0  0  0  0  0  0  0  0  0  0  0  0
   28.1400   26.4100   32.2000 C   0  0  0  0  0  0  0  0  0  0  0  0
   27.4300   26.1300   31.0500 N   0  0  0  0  0  0  0  0  0  0  0  0
   26.4792   27.1184   30.5281 C   0  0  0  0  0  0  0  0  0  0  0  0
   26.4488   27.1249   28.9840 C   0  0  0  0  0  0  0  0  0  0  0  0
   26.8645   25.8454   28.3530 N   0  0  0  0  0  0  0  0  0  0  0  0
   26.2185   25.6759   27.0320 C   0  0  0  0  0  0  0  0  0  0  0  0
   27.0899   24.8163   26.0971 C   0  0  0  0  0  0  0  0  0  0  0  0
   26.4944   24.7736   24.7109 C   0  0  0  0  0  0  0  0  0  0  0  0
   26.9946   25.6029   23.6932 C   0  0  0  0  0  0  0  0  0  0  0  0
   26.3967   25.6025   22.4261 C   0  0  0  0  0  0  0  0  0  0  0  0
   25.2808   24.7916   22.1721 C   0  0  0  0  0  0  0  0  0  0  0  0
   24.6648   24.7986   20.9218 O   0  0  0  0  0  0  0  0  0  0  0  0
   24.7749   23.9698   23.1855 C   0  0  0  0  0  0  0  0  0  0  0  0
   25.3793   23.9558   24.4472 C   0  0  0  0  0  0  0  0  0  0  0  0
   26.6129   24.6879   29.2318 C   0  0  0  0  0  0  0  0  0  0  0  0
   27.5234   24.7930   30.4532 C   0  0  0  0  0  0  0  0  0  0  0  0
  1  2  1  0
  2  3  2  0
  2  4  1  0
  4  5  2  0
  5  6  1  0
  6  7  2  0
  7  8  1  0
  8  9  2  0
  9 10  1  0
 10 11  2  0
 11 12  1  0
 12 13  2  0
 13 14  1  0
 14 15  1  0
 15 16  1  0
 16 17  1  0
 17 18  1  0
 18 19  1  0
 19 20  1  0
 20 21  2  0
 21 22  1  0
 22 23  2  0
 23 24  1  0
 23 25  1  0
 25 26  2  0
 17 27  1  0
 27 28  1  0
 13  4  1  0
 28 14  1  0
 12  7  1  0
 26 20  1  0
M  END
>  <AAScore>  (1) 
-0.2704484272331239

>  <RootName>  (1) 
./4ZLY/04_DeltaGEst/trajectory_03/rank_01/lead_0125

$$$$
