confid_2
     RDKit          3D

 27 29  0  0  0  0  0  0  0  0999 V2000
   24.5700   26.8800   35.5900 N   0  0  0  0  0  0  0  0  0  0  0  0
   25.5000   26.4000   34.6900 C   0  0  0  0  0  0  0  0  0  0  0  0
   25.1700   25.5200   33.9100 O   0  0  0  0  0  0  0  0  0  0  0  0
   26.8400   27.0200   34.7400 C   0  0  0  0  0  0  0  0  0  0  0  0
   27.3800   27.2800   35.9400 N   0  0  0  0  0  0  0  0  0  0  0  0
   28.6200   27.7400   36.0300 N   0  0  0  0  0  0  0  0  0  0  0  0
   29.3800   28.0000   34.9600 C   0  0  0  0  0  0  0  0  0  0  0  0
   30.6700   28.5000   35.1300 C   0  0  0  0  0  0  0  0  0  0  0  0
   31.5400   28.6100   34.0300 C   0  0  0  0  0  0  0  0  0  0  0  0
   31.0900   28.2200   32.7700 C   0  0  0  0  0  0  0  0  0  0  0  0
   29.8000   27.7000   32.6000 C   0  0  0  0  0  0  0  0  0  0  0  0
   28.9600   27.5500   33.7100 C   0  0  0  0  0  0  0  0  0  0  0  0
   27.6600   27.0300   33.5900 C   0  0  0  0  0  0  0  0  0  0  0  0
   27.1600   26.7400   32.3400 N   0  0  0  0  0  0  0  0  0  0  0  0
   33.1555   29.2715   34.2556 S   0  0  0  0  0  6  0  0  0  0  0  0
   33.8581   28.4454   35.2961 O   0  0  0  0  0  0  0  0  0  0  0  0
   33.9406   29.1794   32.9762 O   0  0  0  0  0  0  0  0  0  0  0  0
   33.0737   30.9808   34.8328 C   0  0  1  0  0  0  0  0  0  0  0  0
   34.4608   31.5783   35.0197 C   0  0  0  0  0  0  0  0  0  0  0  0
   34.3142   33.0419   34.9901 N   0  0  0  0  0  0  0  0  0  0  0  0
   32.9877   33.3603   34.4169 C   0  0  2  0  0  0  0  0  0  0  0  0
   32.1925   34.2147   35.4439 C   0  0  0  0  0  0  0  0  0  0  0  0
   32.1857   33.6758   36.8794 C   0  0  0  0  0  0  0  0  0  0  0  0
   32.3406   32.0121   33.9482 C   0  0  0  0  0  0  0  0  0  0  0  0
   32.6488   31.8146   32.4402 C   0  0  0  0  0  0  0  0  0  0  0  0
   30.8039   31.9475   34.1221 C   0  0  0  0  0  0  0  0  0  0  0  0
   35.4157   33.6884   34.2596 C   0  0  0  0  0  0  0  0  0  0  0  0
  1  2  1  0
  2  3  2  0
  2  4  1  0
  4  5  2  0
  5  6  1  0
  6  7  2  0
  7  8  1  0
  8  9  2  0
  9 10  1  0
 10 11  2  0
 11 12  1  0
 12 13  2  0
 13 14  1  0
  9 15  1  0
 15 16  2  0
 15 17  2  0
 18 15  1  6
 18 19  1  0
 19 20  1  0
 20 21  1  0
 21 22  1  1
 22 23  1  0
 21 24  1  0
 24 25  1  0
 24 26  1  0
 20 27  1  0
 13  4  1  0
 24 18  1  0
 12  7  1  0
M  END
>  <AAScore>  (1) 
-5.65439220505514

>  <RootName>  (1) 
./4ZLY/04_DeltaGEst/trajectory_05/rank_01/lead_0329

$$$$
