confid_15
     RDKit          3D

 28 31  0  0  0  0  0  0  0  0999 V2000
   24.2000   26.2400   35.6900 N   0  0  0  0  0  0  0  0  0  0  0  0
   24.8500   26.2800   34.4800 C   0  0  0  0  0  0  0  0  0  0  0  0
   24.3100   25.7400   33.5400 O   0  0  0  0  0  0  0  0  0  0  0  0
   26.1800   26.9700   34.4700 C   0  0  0  0  0  0  0  0  0  0  0  0
   26.6500   27.6000   35.5500 N   0  0  0  0  0  0  0  0  0  0  0  0
   27.7900   28.2700   35.6200 N   0  0  0  0  0  0  0  0  0  0  0  0
   28.5400   28.3000   34.5100 C   0  0  0  0  0  0  0  0  0  0  0  0
   29.7700   28.9400   34.5600 C   0  0  0  0  0  0  0  0  0  0  0  0
   30.7000   28.8900   33.5000 C   0  0  0  0  0  0  0  0  0  0  0  0
   30.3700   28.1400   32.3700 C   0  0  0  0  0  0  0  0  0  0  0  0
   29.1200   27.5200   32.2800 C   0  0  0  0  0  0  0  0  0  0  0  0
   28.2100   27.6100   33.3300 C   0  0  0  0  0  0  0  0  0  0  0  0
   26.9700   26.9700   33.3100 C   0  0  0  0  0  0  0  0  0  0  0  0
   26.5300   26.2400   32.2200 N   0  0  0  0  0  0  0  0  0  0  0  0
   30.1335   29.6788   35.7418 N   0  0  0  0  0  0  0  0  0  0  0  0
   31.2836   29.2516   36.5433 C   0  0  0  0  0  0  0  0  0  0  0  0
   32.3921   30.3119   36.5402 C   0  0  0  0  0  0  0  0  0  0  0  0
   31.9763   31.5811   37.3132 C   0  0  0  0  0  0  0  0  0  0  0  0
   31.3251   32.6316   36.4803 N   0  0  0  0  0  0  0  0  0  0  0  0
   32.3237   33.5139   35.8085 C   0  0  1  0  0  0  0  0  0  0  0  0
   31.6767   34.6108   34.9560 C   0  0  0  0  0  0  0  0  0  0  0  0
   32.7171   35.7117   34.8648 C   0  0  0  0  0  0  0  0  0  0  0  0
   32.1149   36.9449   34.6790 F   0  0  0  0  0  0  0  0  0  0  0  0
   33.5796   35.4573   33.8102 F   0  0  0  0  0  0  0  0  0  0  0  0
   33.4769   35.6648   36.1841 C   0  0  0  0  0  0  0  0  0  0  0  0
   33.1805   34.3030   36.8118 C   0  0  0  0  0  0  0  0  0  0  0  0
   30.3082   32.1232   35.5175 C   0  0  0  0  0  0  0  0  0  0  0  0
   29.4614   30.9490   36.0363 C   0  0  0  0  0  0  0  0  0  0  0  0
  1  2  1  0
  2  3  2  0
  2  4  1  0
  4  5  2  0
  5  6  1  0
  6  7  2  0
  7  8  1  0
  8  9  2  0
  9 10  1  0
 10 11  2  0
 11 12  1  0
 12 13  2  0
 13 14  1  0
  8 15  1  0
 15 16  1  0
 16 17  1  0
 17 18  1  0
 18 19  1  0
 20 19  1  1
 20 21  1  0
 21 22  1  0
 22 23  1  0
 22 24  1  0
 22 25  1  0
 25 26  1  0
 19 27  1  0
 27 28  1  0
 13  4  1  0
 28 15  1  0
 12  7  1  0
 26 20  1  0
M  END
>  <AAScore>  (1) 
-7.472777565861774

>  <RootName>  (1) 
./4ZLY/04_DeltaGEst/trajectory_04/rank_01/lead_0290

$$$$
