confid_8
     RDKit          3D

 29 32  0  0  0  0  0  0  0  0999 V2000
   24.6900   26.1200   35.5300 N   0  0  0  0  0  0  0  0  0  0  0  0
   25.6600   25.6700   34.6600 C   0  0  0  0  0  0  0  0  0  0  0  0
   25.2400   25.0100   33.7200 O   0  0  0  0  0  0  0  0  0  0  0  0
   27.0300   26.2200   34.8800 C   0  0  0  0  0  0  0  0  0  0  0  0
   27.3500   26.7300   36.0700 N   0  0  0  0  0  0  0  0  0  0  0  0
   28.5700   27.1800   36.3300 N   0  0  0  0  0  0  0  0  0  0  0  0
   29.5300   27.1100   35.3900 C   0  0  0  0  0  0  0  0  0  0  0  0
   30.8300   27.5700   35.6500 C   0  0  0  0  0  0  0  0  0  0  0  0
   31.8500   27.5400   34.6900 C   0  0  0  0  0  0  0  0  0  0  0  0
   31.5100   27.1200   33.4000 C   0  0  0  0  0  0  0  0  0  0  0  0
   30.2200   26.6300   33.1100 C   0  0  0  0  0  0  0  0  0  0  0  0
   29.2400   26.6600   34.1000 C   0  0  0  0  0  0  0  0  0  0  0  0
   27.9300   26.2600   33.8100 C   0  0  0  0  0  0  0  0  0  0  0  0
   27.5200   25.7100   32.6100 N   0  0  0  0  0  0  0  0  0  0  0  0
   31.1531   28.0742   36.9554 N   0  0  0  0  0  0  0  0  0  0  0  0
   31.2283   29.5285   37.1489 C   0  0  0  0  0  0  0  0  0  0  0  0
   30.0134   30.0467   37.9280 C   0  0  0  0  0  0  0  0  0  0  0  0
   29.6748   29.2163   39.1763 C   0  0  0  0  0  0  0  0  0  0  0  0
   30.8841   28.7863   39.8940 N   0  0  0  0  0  0  0  0  0  0  0  0
   31.7929   27.7431   39.3829 C   0  0  0  0  0  0  0  0  0  0  0  0
   31.3441   27.1064   38.0518 C   0  0  0  0  0  0  0  0  0  0  0  0
   31.2553   29.4721   41.0991 C   0  0  0  0  0  0  0  0  0  0  0  0
   31.6911   30.8052   41.0451 C   0  0  0  0  0  0  0  0  0  0  0  0
   32.0485   31.4766   42.2180 C   0  0  0  0  0  0  0  0  0  0  0  0
   31.9727   30.8214   43.4506 C   0  0  0  0  0  0  0  0  0  0  0  0
   31.5393   29.4933   43.5111 C   0  0  0  0  0  0  0  0  0  0  0  0
   31.1817   28.8173   42.3399 C   0  0  0  0  0  0  0  0  0  0  0  0
   30.7396   27.5369   42.4155 F   0  0  0  0  0  0  0  0  0  0  0  0
   32.3100   31.4764   44.5881 F   0  0  0  0  0  0  0  0  0  0  0  0
  1  2  1  0
  2  3  2  0
  2  4  1  0
  4  5  2  0
  5  6  1  0
  6  7  2  0
  7  8  1  0
  8  9  2  0
  9 10  1  0
 10 11  2  0
 11 12  1  0
 12 13  2  0
 13 14  1  0
  8 15  1  0
 15 16  1  0
 16 17  1  0
 17 18  1  0
 18 19  1  0
 19 20  1  0
 20 21  1  0
 19 22  1  0
 22 23  2  0
 23 24  1  0
 24 25  2  0
 25 26  1  0
 26 27  2  0
 27 28  1  0
 25 29  1  0
 13  4  1  0
 21 15  1  0
 27 22  1  0
 12  7  1  0
M  END
>  <AAScore>  (1) 
32.75011328558137

>  <RootName>  (1) 
./4ZLY/04_DeltaGEst/trajectory_02/rank_01/lead_0084

$$$$
