confid_7
     RDKit          3D

 27 30  0  0  0  0  0  0  0  0999 V2000
   24.2000   26.2400   35.6900 N   0  0  0  0  0  0  0  0  0  0  0  0
   24.8500   26.2800   34.4800 C   0  0  0  0  0  0  0  0  0  0  0  0
   24.3100   25.7400   33.5400 O   0  0  0  0  0  0  0  0  0  0  0  0
   26.1800   26.9700   34.4700 C   0  0  0  0  0  0  0  0  0  0  0  0
   26.6500   27.6000   35.5500 N   0  0  0  0  0  0  0  0  0  0  0  0
   27.7900   28.2700   35.6200 N   0  0  0  0  0  0  0  0  0  0  0  0
   28.5400   28.3000   34.5100 C   0  0  0  0  0  0  0  0  0  0  0  0
   29.7700   28.9400   34.5600 C   0  0  0  0  0  0  0  0  0  0  0  0
   30.7000   28.8900   33.5000 C   0  0  0  0  0  0  0  0  0  0  0  0
   30.3700   28.1400   32.3700 C   0  0  0  0  0  0  0  0  0  0  0  0
   29.1200   27.5200   32.2800 C   0  0  0  0  0  0  0  0  0  0  0  0
   28.2100   27.6100   33.3300 C   0  0  0  0  0  0  0  0  0  0  0  0
   26.9700   26.9700   33.3100 C   0  0  0  0  0  0  0  0  0  0  0  0
   26.5300   26.2400   32.2200 N   0  0  0  0  0  0  0  0  0  0  0  0
   23.2106   25.2612   36.0539 C   0  0  0  0  0  0  0  0  0  0  0  0
   22.5041   25.4218   37.2172 N   0  0  0  0  0  0  0  0  0  0  0  0
   21.5686   24.5116   37.6119 C   0  0  0  0  0  0  0  0  0  0  0  0
   21.3523   23.4051   36.8045 C   0  0  0  0  0  0  0  0  0  0  0  0
   20.4673   22.3687   36.9984 O   0  0  0  0  0  0  0  0  0  0  0  0
   20.5879   21.4164   35.9350 C   0  0  1  0  0  0  0  0  0  0  0  0
   19.2126   21.1805   35.2835 C   0  0  0  0  0  0  0  0  0  0  0  0
   18.3086   20.8172   36.2673 F   0  0  0  0  0  0  0  0  0  0  0  0
   18.7635   22.3477   34.6878 F   0  0  0  0  0  0  0  0  0  0  0  0
   19.2644   20.0643   34.2388 C   0  0  0  0  0  0  0  0  0  0  0  0
   21.6539   22.0108   34.9580 C   0  0  0  0  0  0  0  0  0  0  0  0
   22.0612   23.2505   35.6610 C   0  0  0  0  0  0  0  0  0  0  0  0
   22.9877   24.1602   35.2714 N   0  0  0  0  0  0  0  0  0  0  0  0
  1  2  1  0
  2  3  2  0
  2  4  1  0
  4  5  2  0
  5  6  1  0
  6  7  2  0
  7  8  1  0
  8  9  2  0
  9 10  1  0
 10 11  2  0
 11 12  1  0
 12 13  2  0
 13 14  1  0
  1 15  1  0
 15 16  2  0
 16 17  1  0
 17 18  2  0
 18 19  1  0
 19 20  1  0
 20 21  1  6
 21 22  1  0
 21 23  1  0
 21 24  1  0
 20 25  1  0
 25 26  1  0
 26 27  2  0
 13  4  1  0
 27 15  1  0
 12  7  1  0
 26 18  1  0
M  END
>  <AAScore>  (1) 
817.8565201577895

>  <RootName>  (1) 
./4ZLY/04_DeltaGEst/trajectory_04/rank_00/lead_0008

$$$$
