confid_10
     RDKit          3D

 27 29  0  0  0  0  0  0  0  0999 V2000
   24.5700   26.8800   35.5900 N   0  0  0  0  0  0  0  0  0  0  0  0
   25.5000   26.4000   34.6900 C   0  0  0  0  0  0  0  0  0  0  0  0
   25.1700   25.5200   33.9100 O   0  0  0  0  0  0  0  0  0  0  0  0
   26.8400   27.0200   34.7400 C   0  0  0  0  0  0  0  0  0  0  0  0
   27.3800   27.2800   35.9400 N   0  0  0  0  0  0  0  0  0  0  0  0
   28.6200   27.7400   36.0300 N   0  0  0  0  0  0  0  0  0  0  0  0
   29.3800   28.0000   34.9600 C   0  0  0  0  0  0  0  0  0  0  0  0
   30.6700   28.5000   35.1300 C   0  0  0  0  0  0  0  0  0  0  0  0
   31.5400   28.6100   34.0300 C   0  0  0  0  0  0  0  0  0  0  0  0
   31.0900   28.2200   32.7700 C   0  0  0  0  0  0  0  0  0  0  0  0
   29.8000   27.7000   32.6000 C   0  0  0  0  0  0  0  0  0  0  0  0
   28.9600   27.5500   33.7100 C   0  0  0  0  0  0  0  0  0  0  0  0
   27.6600   27.0300   33.5900 C   0  0  0  0  0  0  0  0  0  0  0  0
   27.1600   26.7400   32.3400 N   0  0  0  0  0  0  0  0  0  0  0  0
   23.2300   26.2992   35.7035 C   0  0  0  0  0  0  0  0  0  0  0  0
   22.4521   26.9732   36.7933 C   0  0  0  0  0  0  0  0  0  0  0  0
   21.5466   27.7983   36.4945 O   0  0  0  0  0  0  0  0  0  0  0  0
   22.7656   26.7075   38.1660 N   0  0  0  0  0  0  0  0  0  0  0  0
   22.0553   27.3759   39.2552 C   0  0  0  0  0  0  0  0  0  0  0  0
   22.6103   26.9501   40.5892 C   0  0  0  0  0  0  0  0  0  0  0  0
   22.0086   25.8968   41.2983 C   0  0  0  0  0  0  0  0  0  0  0  0
   22.5415   25.4738   42.5211 C   0  0  0  0  0  0  0  0  0  0  0  0
   23.6847   26.0921   43.0368 C   0  0  0  0  0  0  0  0  0  0  0  0
   24.2987   27.1288   42.3293 C   0  0  0  0  0  0  0  0  0  0  0  0
   23.7701   27.5555   41.1067 C   0  0  0  0  0  0  0  0  0  0  0  0
   24.3910   28.5525   40.4265 F   0  0  0  0  0  0  0  0  0  0  0  0
   21.7794   24.1636   43.4041 Cl  0  0  0  0  0  0  0  0  0  0  0  0
  1  2  1  0
  2  3  2  0
  2  4  1  0
  4  5  2  0
  5  6  1  0
  6  7  2  0
  7  8  1  0
  8  9  2  0
  9 10  1  0
 10 11  2  0
 11 12  1  0
 12 13  2  0
 13 14  1  0
  1 15  1  0
 15 16  1  0
 16 17  2  0
 16 18  1  0
 18 19  1  0
 19 20  1  0
 20 21  2  0
 21 22  1  0
 22 23  2  0
 23 24  1  0
 24 25  2  0
 25 26  1  0
 22 27  1  0
 13  4  1  0
 25 20  1  0
 12  7  1  0
M  END
>  <AAScore>  (1) 
61.710382690901945

>  <RootName>  (1) 
./4ZLY/04_DeltaGEst/trajectory_05/rank_00/lead_0366

$$$$
