confid_3
     RDKit          3D

 26 29  0  0  0  0  0  0  0  0999 V2000
   24.6900   26.1200   35.5300 N   0  0  0  0  0  0  0  0  0  0  0  0
   25.6600   25.6700   34.6600 C   0  0  0  0  0  0  0  0  0  0  0  0
   25.2400   25.0100   33.7200 O   0  0  0  0  0  0  0  0  0  0  0  0
   27.0300   26.2200   34.8800 C   0  0  0  0  0  0  0  0  0  0  0  0
   27.3500   26.7300   36.0700 N   0  0  0  0  0  0  0  0  0  0  0  0
   28.5700   27.1800   36.3300 N   0  0  0  0  0  0  0  0  0  0  0  0
   29.5300   27.1100   35.3900 C   0  0  0  0  0  0  0  0  0  0  0  0
   30.8300   27.5700   35.6500 C   0  0  0  0  0  0  0  0  0  0  0  0
   31.8500   27.5400   34.6900 C   0  0  0  0  0  0  0  0  0  0  0  0
   31.5100   27.1200   33.4000 C   0  0  0  0  0  0  0  0  0  0  0  0
   30.2200   26.6300   33.1100 C   0  0  0  0  0  0  0  0  0  0  0  0
   29.2400   26.6600   34.1000 C   0  0  0  0  0  0  0  0  0  0  0  0
   27.9300   26.2600   33.8100 C   0  0  0  0  0  0  0  0  0  0  0  0
   27.5200   25.7100   32.6100 N   0  0  0  0  0  0  0  0  0  0  0  0
   23.5140   25.3742   35.8831 C   0  0  0  0  0  0  0  0  0  0  0  0
   23.3094   24.0095   35.7038 C   0  0  0  0  0  0  0  0  0  0  0  0
   22.0696   23.5783   36.2001 C   0  0  0  0  0  0  0  0  0  0  0  0
   21.3089   24.5963   36.7699 C   0  0  0  0  0  0  0  0  0  0  0  0
   22.1815   26.0309   36.6682 S   0  0  0  0  0  0  0  0  0  0  0  0
   21.5893   22.1596   36.0996 C   0  0  0  0  0  0  0  0  0  0  0  0
   20.5004   22.0538   35.1079 N   0  0  0  0  0  0  0  0  0  0  0  0
   19.7454   20.7999   35.3061 C   0  0  0  0  0  0  0  0  0  0  0  0
   18.7801   20.5412   34.1318 C   0  0  0  0  0  0  0  0  0  0  0  0
   18.6278   21.7005   33.3380 O   0  0  0  0  0  0  0  0  0  0  0  0
   19.8605   22.0193   32.7163 C   0  0  0  0  0  0  0  0  0  0  0  0
   21.0228   22.1107   33.7286 C   0  0  0  0  0  0  0  0  0  0  0  0
  1  2  1  0
  2  3  2  0
  2  4  1  0
  4  5  2  0
  5  6  1  0
  6  7  2  0
  7  8  1  0
  8  9  2  0
  9 10  1  0
 10 11  2  0
 11 12  1  0
 12 13  2  0
 13 14  1  0
  1 15  1  0
 15 16  2  0
 16 17  1  0
 17 18  2  0
 18 19  1  0
 17 20  1  0
 20 21  1  0
 21 22  1  0
 22 23  1  0
 23 24  1  0
 24 25  1  0
 25 26  1  0
 13  4  1  0
 19 15  1  0
 26 21  1  0
 12  7  1  0
M  END
>  <AAScore>  (1) 
695.7381471317532

>  <RootName>  (1) 
./4ZLY/04_DeltaGEst/trajectory_02/rank_00/lead_0277

$$$$
