confid_4
     RDKit          3D

 30 33  0  0  0  0  0  0  0  0999 V2000
   24.5700   26.8800   35.5900 N   0  0  0  0  0  0  0  0  0  0  0  0
   25.5000   26.4000   34.6900 C   0  0  0  0  0  0  0  0  0  0  0  0
   25.1700   25.5200   33.9100 O   0  0  0  0  0  0  0  0  0  0  0  0
   26.8400   27.0200   34.7400 C   0  0  0  0  0  0  0  0  0  0  0  0
   27.3800   27.2800   35.9400 N   0  0  0  0  0  0  0  0  0  0  0  0
   28.6200   27.7400   36.0300 N   0  0  0  0  0  0  0  0  0  0  0  0
   29.3800   28.0000   34.9600 C   0  0  0  0  0  0  0  0  0  0  0  0
   30.6700   28.5000   35.1300 C   0  0  0  0  0  0  0  0  0  0  0  0
   31.5400   28.6100   34.0300 C   0  0  0  0  0  0  0  0  0  0  0  0
   31.0900   28.2200   32.7700 C   0  0  0  0  0  0  0  0  0  0  0  0
   29.8000   27.7000   32.6000 C   0  0  0  0  0  0  0  0  0  0  0  0
   28.9600   27.5500   33.7100 C   0  0  0  0  0  0  0  0  0  0  0  0
   27.6600   27.0300   33.5900 C   0  0  0  0  0  0  0  0  0  0  0  0
   27.1600   26.7400   32.3400 N   0  0  0  0  0  0  0  0  0  0  0  0
   33.1761   29.2196   34.2469 S   0  0  0  0  0  6  0  0  0  0  0  0
   33.1750   30.2587   35.3324 O   0  0  0  0  0  0  0  0  0  0  0  0
   33.6383   29.8590   32.9673 O   0  0  0  0  0  0  0  0  0  0  0  0
   34.2344   27.8382   34.6893 C   0  0  0  0  0  0  0  0  0  0  0  0
   35.7376   28.1824   34.7638 C   0  0  2  0  0  0  0  0  0  0  0  0
   36.0826   29.1128   35.9358 C   0  0  0  0  0  0  0  0  0  0  0  0
   36.6416   30.3668   35.2971 C   0  0  0  0  0  0  0  0  0  0  0  0
   37.1291   29.8996   33.9340 C   0  0  2  0  0  0  0  0  0  0  0  0
   37.1610   31.0574   32.9329 C   0  0  0  0  0  0  0  0  0  0  0  0
   36.1903   28.8384   33.5231 N   0  0  0  0  0  0  0  0  0  0  0  0
   36.6165   27.8777   32.4625 C   0  0  0  0  0  0  0  0  0  0  0  0
   36.0976   28.3437   31.0784 C   0  0  0  0  0  0  0  0  0  0  0  0
   36.9606   27.8474   29.9024 C   0  0  0  0  0  0  0  0  0  0  0  0
   37.5395   26.4557   30.1789 C   0  0  0  0  0  0  0  0  0  0  0  0
   38.4507   26.4427   31.4249 C   0  0  0  0  0  0  0  0  0  0  0  0
   38.1306   27.5641   32.4337 C   0  0  0  0  0  0  0  0  0  0  0  0
  1  2  1  0
  2  3  2  0
  2  4  1  0
  4  5  2  0
  5  6  1  0
  6  7  2  0
  7  8  1  0
  8  9  2  0
  9 10  1  0
 10 11  2  0
 11 12  1  0
 12 13  2  0
 13 14  1  0
  9 15  1  0
 15 16  2  0
 15 17  2  0
 15 18  1  0
 19 18  1  6
 19 20  1  0
 20 21  1  0
 21 22  1  0
 22 23  1  6
 22 24  1  0
 24 25  1  0
 25 26  1  0
 26 27  1  0
 27 28  1  0
 28 29  1  0
 29 30  1  0
 13  4  1  0
 24 19  1  0
 30 25  1  0
 12  7  1  0
M  END
>  <AAScore>  (1) 
51.63126203680513

>  <RootName>  (1) 
./4ZLY/04_DeltaGEst/trajectory_05/rank_01/lead_0346

$$$$
