confid_16
     RDKit          3D

 27 30  0  0  0  0  0  0  0  0999 V2000
   24.4800   26.1000   36.1300 N   0  0  0  0  0  0  0  0  0  0  0  0
   25.2500   26.2500   34.9900 C   0  0  0  0  0  0  0  0  0  0  0  0
   24.7400   25.7600   33.9900 O   0  0  0  0  0  0  0  0  0  0  0  0
   26.5900   26.8900   34.9600 C   0  0  0  0  0  0  0  0  0  0  0  0
   27.0600   27.2400   36.1600 N   0  0  0  0  0  0  0  0  0  0  0  0
   28.3000   27.7100   36.2400 N   0  0  0  0  0  0  0  0  0  0  0  0
   29.0500   27.9600   35.1500 C   0  0  0  0  0  0  0  0  0  0  0  0
   30.3400   28.4900   35.2600 C   0  0  0  0  0  0  0  0  0  0  0  0
   31.1100   28.8200   34.1400 C   0  0  0  0  0  0  0  0  0  0  0  0
   30.5200   28.6700   32.8800 C   0  0  0  0  0  0  0  0  0  0  0  0
   29.2900   28.0200   32.7700 C   0  0  0  0  0  0  0  0  0  0  0  0
   28.5200   27.7100   33.8900 C   0  0  0  0  0  0  0  0  0  0  0  0
   27.2700   27.0800   33.7600 C   0  0  0  0  0  0  0  0  0  0  0  0
   26.7500   26.8800   32.4900 N   0  0  0  0  0  0  0  0  0  0  0  0
   23.0846   25.7584   36.1150 C   0  0  0  0  0  0  0  0  0  0  0  0
   22.5146   24.8413   36.9929 C   0  0  0  0  0  0  0  0  0  0  0  0
   21.1560   24.9547   36.7929 C   0  0  0  0  0  0  0  0  0  0  0  0
   20.0157   24.8606   37.7631 C   0  0  0  0  0  0  0  0  0  0  0  0
   19.1025   25.9089   37.2883 N   0  0  0  0  0  0  0  0  0  0  0  0
   19.7097   26.5779   36.1824 C   0  0  0  0  0  0  0  0  0  0  0  0
   19.2449   27.6088   35.6278 O   0  0  0  0  0  0  0  0  0  0  0  0
   20.9638   25.9323   35.8727 C   0  0  0  0  0  0  0  0  0  0  0  0
   22.1286   26.4618   35.4485 N   0  0  0  0  0  0  0  0  0  0  0  0
   22.2812   27.7798   34.8329 C   0  0  0  0  0  0  0  0  0  0  0  0
   17.8715   26.3144   37.9621 C   0  0  0  0  0  0  0  0  0  0  0  0
   16.6577   26.0039   37.0830 C   0  0  0  0  0  0  0  0  0  0  0  0
   15.3593   26.4027   37.7769 C   0  0  0  0  0  0  0  0  0  0  0  0
  1  2  1  0
  2  3  2  0
  2  4  1  0
  4  5  2  0
  5  6  1  0
  6  7  2  0
  7  8  1  0
  8  9  2  0
  9 10  1  0
 10 11  2  0
 11 12  1  0
 12 13  2  0
 13 14  1  0
  1 15  1  0
 15 16  2  0
 16 17  1  0
 17 18  1  0
 18 19  1  0
 19 20  1  0
 20 21  2  0
 20 22  1  0
 22 23  1  0
 23 24  1  0
 19 25  1  0
 25 26  1  0
 26 27  1  0
 13  4  1  0
 23 15  1  0
 12  7  1  0
 22 17  2  0
M  END
>  <AAScore>  (1) 
1266.4208088855428

>  <RootName>  (1) 
./4ZLY/04_DeltaGEst/trajectory_00/rank_00/lead_0183

$$$$
