confid_2
     RDKit          3D

 27 30  0  0  0  0  0  0  0  0999 V2000
   25.3300   26.2600   34.7600 N   0  0  0  0  0  0  0  0  0  0  0  0
   26.1200   25.9200   33.6900 C   0  0  0  0  0  0  0  0  0  0  0  0
   25.6300   25.1100   32.9400 O   0  0  0  0  0  0  0  0  0  0  0  0
   27.5200   26.3800   33.4600 C   0  0  0  0  0  0  0  0  0  0  0  0
   28.1600   26.6300   34.6100 N   0  0  0  0  0  0  0  0  0  0  0  0
   29.4800   26.8500   34.5700 N   0  0  0  0  0  0  0  0  0  0  0  0
   30.1900   26.7800   33.4400 C   0  0  0  0  0  0  0  0  0  0  0  0
   31.5600   27.0500   33.5000 C   0  0  0  0  0  0  0  0  0  0  0  0
   32.2700   27.2400   32.3100 C   0  0  0  0  0  0  0  0  0  0  0  0
   31.6100   27.2500   31.0800 C   0  0  0  0  0  0  0  0  0  0  0  0
   30.2700   26.8700   31.0600 C   0  0  0  0  0  0  0  0  0  0  0  0
   29.5100   26.6900   32.2300 C   0  0  0  0  0  0  0  0  0  0  0  0
   28.1400   26.4100   32.2000 C   0  0  0  0  0  0  0  0  0  0  0  0
   27.4300   26.1300   31.0500 N   0  0  0  0  0  0  0  0  0  0  0  0
   23.9503   25.8857   34.9425 C   0  0  0  0  0  0  0  0  0  0  0  0
   23.2096   25.2129   34.0373 N   0  0  0  0  0  0  0  0  0  0  0  0
   21.9902   25.1244   34.6142 C   0  0  0  0  0  0  0  0  0  0  0  0
   20.8163   24.5017   33.9227 C   0  0  0  0  0  0  0  0  0  0  0  0
   19.9326   25.5566   33.3716 N   0  0  0  0  0  0  0  0  0  0  0  0
   19.3826   25.1328   32.0718 C   0  0  0  0  0  0  0  0  0  0  0  0
   18.8363   25.9227   34.3029 C   0  0  0  0  0  0  0  0  0  0  0  0
   19.1996   27.1421   35.1116 C   0  0  0  0  0  0  0  0  0  0  0  0
   20.0111   27.1358   36.1826 C   0  0  0  0  0  0  0  0  0  0  0  0
   20.7586   25.9256   36.6651 C   0  0  0  0  0  0  0  0  0  0  0  0
   21.9402   25.7133   35.8308 N   0  0  0  0  0  0  0  0  0  0  0  0
   23.1757   26.2077   36.0355 C   0  0  0  0  0  0  0  0  0  0  0  0
   23.6758   27.1528   37.4317 Cl  0  0  0  0  0  0  0  0  0  0  0  0
  1  2  1  0
  2  3  2  0
  2  4  1  0
  4  5  2  0
  5  6  1  0
  6  7  2  0
  7  8  1  0
  8  9  2  0
  9 10  1  0
 10 11  2  0
 11 12  1  0
 12 13  2  0
 13 14  1  0
  1 15  1  0
 15 16  1  0
 16 17  2  0
 17 18  1  0
 18 19  1  0
 19 20  1  0
 19 21  1  0
 21 22  1  0
 22 23  2  0
 23 24  1  0
 24 25  1  0
 25 26  1  0
 26 27  1  0
 13  4  1  0
 26 15  2  0
 12  7  1  0
 25 17  1  0
M  END
>  <AAScore>  (1) 
23681.245395932525

>  <RootName>  (1) 
./4ZLY/04_DeltaGEst/trajectory_03/rank_00/lead_0088

$$$$
