confid_15
     RDKit          3D

 27 30  0  0  0  0  0  0  0  0999 V2000
   24.5500   26.3900   36.2500 N   0  0  0  0  0  0  0  0  0  0  0  0
   25.6000   26.1300   35.4000 C   0  0  0  0  0  0  0  0  0  0  0  0
   25.4300   25.4300   34.4200 O   0  0  0  0  0  0  0  0  0  0  0  0
   26.9800   26.6300   35.7100 C   0  0  0  0  0  0  0  0  0  0  0  0
   27.3200   26.8200   36.9800 N   0  0  0  0  0  0  0  0  0  0  0  0
   28.4700   27.4000   37.3100 N   0  0  0  0  0  0  0  0  0  0  0  0
   29.4000   27.6300   36.3700 C   0  0  0  0  0  0  0  0  0  0  0  0
   30.6600   28.0500   36.8000 C   0  0  0  0  0  0  0  0  0  0  0  0
   31.5700   28.3600   35.7800 C   0  0  0  0  0  0  0  0  0  0  0  0
   31.3700   28.1000   34.4300 C   0  0  0  0  0  0  0  0  0  0  0  0
   30.1200   27.5900   34.0500 C   0  0  0  0  0  0  0  0  0  0  0  0
   29.1500   27.3400   35.0300 C   0  0  0  0  0  0  0  0  0  0  0  0
   27.8800   26.8900   34.6600 C   0  0  0  0  0  0  0  0  0  0  0  0
   27.4800   26.6100   33.3700 N   0  0  0  0  0  0  0  0  0  0  0  0
   31.0040   28.2802   38.2264 C   0  0  0  0  0  0  0  0  0  0  0  0
   30.8034   27.2700   39.1774 C   0  0  0  0  0  0  0  0  0  0  0  0
   31.1317   27.4658   40.5326 C   0  0  0  0  0  0  0  0  0  0  0  0
   30.9787   26.2793   41.4565 C   0  0  0  0  0  0  0  0  0  0  0  0
   29.5467   26.1440   42.0097 C   0  0  0  0  0  0  0  0  0  0  0  0
   29.5403   26.3783   43.4059 O   0  0  0  0  0  0  0  0  0  0  0  0
   28.8863   27.5891   43.7396 C   0  0  0  0  0  0  0  0  0  0  0  0
   29.6312   28.8376   43.2344 C   0  0  0  0  0  0  0  0  0  0  0  0
   31.1585   28.7490   43.4472 C   0  0  0  0  0  0  0  0  0  0  0  0
   31.8975   29.1078   42.2757 O   0  0  0  0  0  0  0  0  0  0  0  0
   31.6303   28.7356   40.9438 C   0  0  0  0  0  0  0  0  0  0  0  0
   31.8737   29.7155   39.9734 C   0  0  0  0  0  0  0  0  0  0  0  0
   31.5649   29.4961   38.6321 C   0  0  0  0  0  0  0  0  0  0  0  0
  1  2  1  0
  2  3  2  0
  2  4  1  0
  4  5  2  0
  5  6  1  0
  6  7  2  0
  7  8  1  0
  8  9  2  0
  9 10  1  0
 10 11  2  0
 11 12  1  0
 12 13  2  0
 13 14  1  0
  8 15  1  0
 15 16  2  0
 16 17  1  0
 17 18  1  0
 18 19  1  0
 19 20  1  0
 20 21  1  0
 21 22  1  0
 22 23  1  0
 23 24  1  0
 24 25  1  0
 25 26  1  0
 26 27  2  0
 13  4  1  0
 27 15  1  0
 12  7  1  0
 25 17  2  0
M  END
>  <AAScore>  (1) 
24.999960453939043

>  <RootName>  (1) 
./4ZLY/04_DeltaGEst/trajectory_01/rank_01/lead_0155

$$$$
