confid_12
     RDKit          3D

 27 30  0  0  0  0  0  0  0  0999 V2000
   24.2000   26.2400   35.6900 N   0  0  0  0  0  0  0  0  0  0  0  0
   24.8500   26.2800   34.4800 C   0  0  0  0  0  0  0  0  0  0  0  0
   24.3100   25.7400   33.5400 O   0  0  0  0  0  0  0  0  0  0  0  0
   26.1800   26.9700   34.4700 C   0  0  0  0  0  0  0  0  0  0  0  0
   26.6500   27.6000   35.5500 N   0  0  0  0  0  0  0  0  0  0  0  0
   27.7900   28.2700   35.6200 N   0  0  0  0  0  0  0  0  0  0  0  0
   28.5400   28.3000   34.5100 C   0  0  0  0  0  0  0  0  0  0  0  0
   29.7700   28.9400   34.5600 C   0  0  0  0  0  0  0  0  0  0  0  0
   30.7000   28.8900   33.5000 C   0  0  0  0  0  0  0  0  0  0  0  0
   30.3700   28.1400   32.3700 C   0  0  0  0  0  0  0  0  0  0  0  0
   29.1200   27.5200   32.2800 C   0  0  0  0  0  0  0  0  0  0  0  0
   28.2100   27.6100   33.3300 C   0  0  0  0  0  0  0  0  0  0  0  0
   26.9700   26.9700   33.3100 C   0  0  0  0  0  0  0  0  0  0  0  0
   26.5300   26.2400   32.2200 N   0  0  0  0  0  0  0  0  0  0  0  0
   22.8051   25.9307   35.8718 C   0  0  0  0  0  0  0  0  0  0  0  0
   21.9721   25.7626   34.8049 N   0  0  0  0  0  0  0  0  0  0  0  0
   20.6556   25.4726   34.9757 C   0  0  0  0  0  0  0  0  0  0  0  0
   20.1343   25.3599   36.2665 C   0  0  0  0  0  0  0  0  0  0  0  0
   18.7090   24.9620   36.5384 C   0  0  0  0  0  0  0  0  0  0  0  0
   18.1279   25.6778   37.7110 N   0  0  0  0  0  0  0  0  0  0  0  0
   19.0774   26.1245   38.7716 C   0  0  0  0  0  0  0  0  0  0  0  0
   20.4377   25.4118   38.7239 C   0  0  0  0  0  0  0  0  0  0  0  0
   20.9951   25.5383   37.3451 C   0  0  0  0  0  0  0  0  0  0  0  0
   22.3077   25.8183   37.1341 N   0  0  0  0  0  0  0  0  0  0  0  0
   17.1227   26.7230   37.3828 C   0  0  0  0  0  0  0  0  0  0  0  0
   17.6324   27.7537   36.3581 C   0  0  0  0  0  0  0  0  0  0  0  0
   15.8060   26.0864   36.9224 C   0  0  0  0  0  0  0  0  0  0  0  0
  1  2  1  0
  2  3  2  0
  2  4  1  0
  4  5  2  0
  5  6  1  0
  6  7  2  0
  7  8  1  0
  8  9  2  0
  9 10  1  0
 10 11  2  0
 11 12  1  0
 12 13  2  0
 13 14  1  0
  1 15  1  0
 15 16  2  0
 16 17  1  0
 17 18  2  0
 18 19  1  0
 19 20  1  0
 20 21  1  0
 21 22  1  0
 22 23  1  0
 23 24  2  0
 20 25  1  0
 25 26  1  0
 25 27  1  0
 13  4  1  0
 24 15  1  0
 12  7  1  0
 23 18  1  0
M  END
>  <AAScore>  (1) 
334.7578263871731

>  <RootName>  (1) 
./4ZLY/04_DeltaGEst/trajectory_04/rank_00/lead_0499

$$$$
