confid_4
     RDKit          3D

 29 32  0  0  0  0  0  0  0  0999 V2000
   24.2000   26.2400   35.6900 N   0  0  0  0  0  0  0  0  0  0  0  0
   24.8500   26.2800   34.4800 C   0  0  0  0  0  0  0  0  0  0  0  0
   24.3100   25.7400   33.5400 O   0  0  0  0  0  0  0  0  0  0  0  0
   26.1800   26.9700   34.4700 C   0  0  0  0  0  0  0  0  0  0  0  0
   26.6500   27.6000   35.5500 N   0  0  0  0  0  0  0  0  0  0  0  0
   27.7900   28.2700   35.6200 N   0  0  0  0  0  0  0  0  0  0  0  0
   28.5400   28.3000   34.5100 C   0  0  0  0  0  0  0  0  0  0  0  0
   29.7700   28.9400   34.5600 C   0  0  0  0  0  0  0  0  0  0  0  0
   30.7000   28.8900   33.5000 C   0  0  0  0  0  0  0  0  0  0  0  0
   30.3700   28.1400   32.3700 C   0  0  0  0  0  0  0  0  0  0  0  0
   29.1200   27.5200   32.2800 C   0  0  0  0  0  0  0  0  0  0  0  0
   28.2100   27.6100   33.3300 C   0  0  0  0  0  0  0  0  0  0  0  0
   26.9700   26.9700   33.3100 C   0  0  0  0  0  0  0  0  0  0  0  0
   26.5300   26.2400   32.2200 N   0  0  0  0  0  0  0  0  0  0  0  0
   22.7670   26.1082   35.8249 C   0  0  0  0  0  0  0  0  0  0  0  0
   21.9686   26.4128   34.7655 N   0  0  0  0  0  0  0  0  0  0  0  0
   20.6168   26.3819   34.8343 C   0  0  0  0  0  0  0  0  0  0  0  0
   19.9789   26.0667   36.0354 C   0  0  0  0  0  0  0  0  0  0  0  0
   18.4737   26.1545   36.1096 C   0  0  0  0  0  0  0  0  0  0  0  0
   17.9354   25.4326   37.2835 N   0  0  0  0  0  0  0  0  0  0  0  0
   16.4750   25.6320   37.3957 C   0  0  0  0  0  0  0  0  0  0  0  0
   15.7486   24.8740   36.3171 C   0  0  0  0  0  0  0  0  0  0  0  0
   15.8568   23.6580   36.2534 O   0  0  0  0  0  0  0  0  0  0  0  0
   14.8821   25.5976   35.3317 C   0  0  0  0  0  0  0  0  0  0  0  0
   18.6071   25.9115   38.5041 C   0  0  0  0  0  0  0  0  0  0  0  0
   20.0716   25.4709   38.4910 C   0  0  0  0  0  0  0  0  0  0  0  0
   20.7595   25.7827   37.1772 C   0  0  0  0  0  0  0  0  0  0  0  0
   22.1746   25.7335   37.0582 C   0  0  0  0  0  0  0  0  0  0  0  0
   23.0448   25.3289   38.2283 C   0  0  0  0  0  0  0  0  0  0  0  0
  1  2  1  0
  2  3  2  0
  2  4  1  0
  4  5  2  0
  5  6  1  0
  6  7  2  0
  7  8  1  0
  8  9  2  0
  9 10  1  0
 10 11  2  0
 11 12  1  0
 12 13  2  0
 13 14  1  0
  1 15  1  0
 15 16  2  0
 16 17  1  0
 17 18  2  0
 18 19  1  0
 19 20  1  0
 20 21  1  0
 21 22  1  0
 22 23  2  0
 22 24  1  0
 20 25  1  0
 25 26  1  0
 26 27  1  0
 27 28  2  0
 28 29  1  0
 13  4  1  0
 28 15  1  0
 12  7  1  0
 27 18  1  0
M  END
>  <AAScore>  (1) 
491.1670115943537

>  <RootName>  (1) 
./4ZLY/04_DeltaGEst/trajectory_04/rank_00/lead_0336

$$$$
