confid_13
     RDKit          3D

 29 33  0  0  0  0  0  0  0  0999 V2000
   24.5500   26.3900   36.2500 N   0  0  0  0  0  0  0  0  0  0  0  0
   25.6000   26.1300   35.4000 C   0  0  0  0  0  0  0  0  0  0  0  0
   25.4300   25.4300   34.4200 O   0  0  0  0  0  0  0  0  0  0  0  0
   26.9800   26.6300   35.7100 C   0  0  0  0  0  0  0  0  0  0  0  0
   27.3200   26.8200   36.9800 N   0  0  0  0  0  0  0  0  0  0  0  0
   28.4700   27.4000   37.3100 N   0  0  0  0  0  0  0  0  0  0  0  0
   29.4000   27.6300   36.3700 C   0  0  0  0  0  0  0  0  0  0  0  0
   30.6600   28.0500   36.8000 C   0  0  0  0  0  0  0  0  0  0  0  0
   31.5700   28.3600   35.7800 C   0  0  0  0  0  0  0  0  0  0  0  0
   31.3700   28.1000   34.4300 C   0  0  0  0  0  0  0  0  0  0  0  0
   30.1200   27.5900   34.0500 C   0  0  0  0  0  0  0  0  0  0  0  0
   29.1500   27.3400   35.0300 C   0  0  0  0  0  0  0  0  0  0  0  0
   27.8800   26.8900   34.6600 C   0  0  0  0  0  0  0  0  0  0  0  0
   27.4800   26.6100   33.3700 N   0  0  0  0  0  0  0  0  0  0  0  0
   23.3239   25.6463   36.2509 C   0  0  0  0  0  0  0  0  0  0  0  0
   22.2452   26.2207   36.7037 N   0  0  0  0  0  0  0  0  0  0  0  0
   20.9689   25.5811   36.8063 C   0  0  0  0  0  0  0  0  0  0  0  0
   20.3981   25.0246   35.7442 C   0  0  0  0  0  0  0  0  0  0  0  0
   19.2309   24.1440   35.4113 C   0  0  0  0  0  0  0  0  0  0  0  0
   19.5490   24.0159   34.0605 O   0  0  0  0  0  0  0  0  0  0  0  0
   20.6268   24.8758   34.2632 C   0  0  2  0  0  0  0  0  0  0  0  0
   21.9725   24.2455   33.8449 C   0  0  0  0  0  0  0  0  0  0  0  0
   22.7252   23.5779   34.9634 C   0  0  0  0  0  0  0  0  0  0  0  0
   22.9560   22.2177   35.0656 C   0  0  0  0  0  0  0  0  0  0  0  0
   23.7496   22.0336   36.1806 C   0  0  0  0  0  0  0  0  0  0  0  0
   23.9722   23.2960   36.7083 C   0  0  0  0  0  0  0  0  0  0  0  0
   23.3416   24.2315   35.9736 N   0  0  0  0  0  0  0  0  0  0  0  0
   24.7226   23.5911   37.8533 O   0  0  0  0  0  0  0  0  0  0  0  0
   25.4262   22.6041   38.5987 C   0  0  0  0  0  0  0  0  0  0  0  0
  1  2  1  0
  2  3  2  0
  2  4  1  0
  4  5  2  0
  5  6  1  0
  6  7  2  0
  7  8  1  0
  8  9  2  0
  9 10  1  0
 10 11  2  0
 11 12  1  0
 12 13  2  0
 13 14  1  0
  1 15  1  0
 15 16  2  0
 16 17  1  0
 17 18  2  0
 18 19  1  0
 19 20  1  0
 20 21  1  0
 21 22  1  1
 22 23  1  0
 23 24  2  0
 24 25  1  0
 25 26  2  0
 26 27  1  0
 26 28  1  0
 28 29  1  0
 13  4  1  0
 27 15  1  0
 12  7  1  0
 21 18  1  0
 27 23  1  0
M  END
>  <AAScore>  (1) 
2121.179417651587

>  <RootName>  (1) 
./4ZLY/04_DeltaGEst/trajectory_01/rank_00/lead_0280

$$$$
