confid_19
     RDKit          3D

 29 32  0  0  0  0  0  0  0  0999 V2000
   24.5500   26.3900   36.2500 N   0  0  0  0  0  0  0  0  0  0  0  0
   25.6000   26.1300   35.4000 C   0  0  0  0  0  0  0  0  0  0  0  0
   25.4300   25.4300   34.4200 O   0  0  0  0  0  0  0  0  0  0  0  0
   26.9800   26.6300   35.7100 C   0  0  0  0  0  0  0  0  0  0  0  0
   27.3200   26.8200   36.9800 N   0  0  0  0  0  0  0  0  0  0  0  0
   28.4700   27.4000   37.3100 N   0  0  0  0  0  0  0  0  0  0  0  0
   29.4000   27.6300   36.3700 C   0  0  0  0  0  0  0  0  0  0  0  0
   30.6600   28.0500   36.8000 C   0  0  0  0  0  0  0  0  0  0  0  0
   31.5700   28.3600   35.7800 C   0  0  0  0  0  0  0  0  0  0  0  0
   31.3700   28.1000   34.4300 C   0  0  0  0  0  0  0  0  0  0  0  0
   30.1200   27.5900   34.0500 C   0  0  0  0  0  0  0  0  0  0  0  0
   29.1500   27.3400   35.0300 C   0  0  0  0  0  0  0  0  0  0  0  0
   27.8800   26.8900   34.6600 C   0  0  0  0  0  0  0  0  0  0  0  0
   27.4800   26.6100   33.3700 N   0  0  0  0  0  0  0  0  0  0  0  0
   30.9789   28.2872   38.1911 N   0  0  0  0  0  0  0  0  0  0  0  0
   31.7292   29.4981   38.5718 C   0  0  0  0  0  0  0  0  0  0  0  0
   31.2496   30.0757   39.9090 C   0  0  0  0  0  0  0  0  0  0  0  0
   29.7436   30.1037   39.9549 C   0  0  0  0  0  0  0  0  0  0  0  0
   29.0654   31.3167   39.7640 C   0  0  0  0  0  0  0  0  0  0  0  0
   27.6725   31.3463   39.7020 C   0  0  0  0  0  0  0  0  0  0  0  0
   26.9329   30.1629   39.8269 C   0  0  0  0  0  0  0  0  0  0  0  0
   25.4284   30.1915   39.7252 C   0  0  0  0  0  0  0  0  0  0  0  0
   24.9563   29.4333   38.5475 N   0  0  0  0  0  0  0  0  0  0  0  0
   23.4908   29.3022   38.6017 C   0  0  0  0  0  0  0  0  0  0  0  0
   25.3426   30.1061   37.2938 C   0  0  0  0  0  0  0  0  0  0  0  0
   27.6039   28.9460   40.0177 C   0  0  0  0  0  0  0  0  0  0  0  0
   29.0085   28.8998   40.0649 C   0  0  0  0  0  0  0  0  0  0  0  0
   29.7103   27.5664   40.2573 C   0  0  0  0  0  0  0  0  0  0  0  0
   30.7760   27.2178   39.1841 C   0  0  0  0  0  0  0  0  0  0  0  0
  1  2  1  0
  2  3  2  0
  2  4  1  0
  4  5  2  0
  5  6  1  0
  6  7  2  0
  7  8  1  0
  8  9  2  0
  9 10  1  0
 10 11  2  0
 11 12  1  0
 12 13  2  0
 13 14  1  0
  8 15  1  0
 15 16  1  0
 16 17  1  0
 17 18  1  0
 18 19  2  0
 19 20  1  0
 20 21  2  0
 21 22  1  0
 22 23  1  0
 23 24  1  0
 23 25  1  0
 21 26  1  0
 26 27  2  0
 27 28  1  0
 28 29  1  0
 13  4  1  0
 29 15  1  0
 12  7  1  0
 27 18  1  0
M  END
>  <AAScore>  (1) 
11.280086593600917

>  <RootName>  (1) 
./4ZLY/04_DeltaGEst/trajectory_01/rank_01/lead_0424

$$$$
