confid_17
     RDKit          3D

 27 30  0  0  0  0  0  0  0  0999 V2000
   25.3300   26.2600   34.7600 N   0  0  0  0  0  0  0  0  0  0  0  0
   26.1200   25.9200   33.6900 C   0  0  0  0  0  0  0  0  0  0  0  0
   25.6300   25.1100   32.9400 O   0  0  0  0  0  0  0  0  0  0  0  0
   27.5200   26.3800   33.4600 C   0  0  0  0  0  0  0  0  0  0  0  0
   28.1600   26.6300   34.6100 N   0  0  0  0  0  0  0  0  0  0  0  0
   29.4800   26.8500   34.5700 N   0  0  0  0  0  0  0  0  0  0  0  0
   30.1900   26.7800   33.4400 C   0  0  0  0  0  0  0  0  0  0  0  0
   31.5600   27.0500   33.5000 C   0  0  0  0  0  0  0  0  0  0  0  0
   32.2700   27.2400   32.3100 C   0  0  0  0  0  0  0  0  0  0  0  0
   31.6100   27.2500   31.0800 C   0  0  0  0  0  0  0  0  0  0  0  0
   30.2700   26.8700   31.0600 C   0  0  0  0  0  0  0  0  0  0  0  0
   29.5100   26.6900   32.2300 C   0  0  0  0  0  0  0  0  0  0  0  0
   28.1400   26.4100   32.2000 C   0  0  0  0  0  0  0  0  0  0  0  0
   27.4300   26.1300   31.0500 N   0  0  0  0  0  0  0  0  0  0  0  0
   26.4474   27.0983   30.5302 C   0  0  0  0  0  0  0  0  0  0  0  0
   26.7911   27.4941   29.0817 C   0  0  0  0  0  0  0  0  0  0  0  0
   27.1818   26.2783   28.2886 C   0  0  0  0  0  0  0  0  0  0  0  0
   27.6125   25.1105   28.8652 C   0  0  0  0  0  0  0  0  0  0  0  0
   27.6424   24.8580   30.3389 C   0  0  0  0  0  0  0  0  0  0  0  0
   28.0110   24.3174   27.8111 C   0  0  0  0  0  0  0  0  0  0  0  0
   27.8586   24.9965   26.6557 N   0  0  0  0  0  0  0  0  0  0  0  0
   27.3465   26.1870   26.9499 N   0  0  0  0  0  0  0  0  0  0  0  0
   27.1618   27.2596   25.9656 C   0  0  0  0  0  0  0  0  0  0  0  0
   28.5015   27.9439   25.6876 C   0  0  0  0  0  0  0  0  0  0  0  0
   26.5499   26.7076   24.6740 C   0  0  0  0  0  0  0  0  0  0  0  0
   28.5641   22.9941   27.9003 C   0  0  0  0  0  0  0  0  0  0  0  0
   29.0095   21.9287   27.9729 N   0  0  0  0  0  0  0  0  0  0  0  0
  1  2  1  0
  2  3  2  0
  2  4  1  0
  4  5  2  0
  5  6  1  0
  6  7  2  0
  7  8  1  0
  8  9  2  0
  9 10  1  0
 10 11  2  0
 11 12  1  0
 12 13  2  0
 13 14  1  0
 14 15  1  0
 15 16  1  0
 16 17  1  0
 17 18  2  0
 18 19  1  0
 18 20  1  0
 20 21  2  0
 21 22  1  0
 22 23  1  0
 23 24  1  0
 23 25  1  0
 20 26  1  0
 26 27  3  0
 13  4  1  0
 19 14  1  0
 12  7  1  0
 22 17  1  0
M  END
>  <AAScore>  (1) 
-0.4512039963770234

>  <RootName>  (1) 
./4ZLY/04_DeltaGEst/trajectory_03/rank_01/lead_0314

$$$$
