confid_15
     RDKit          3D

 29 32  0  0  0  0  0  0  0  0999 V2000
   25.3300   26.2600   34.7600 N   0  0  0  0  0  0  0  0  0  0  0  0
   26.1200   25.9200   33.6900 C   0  0  0  0  0  0  0  0  0  0  0  0
   25.6300   25.1100   32.9400 O   0  0  0  0  0  0  0  0  0  0  0  0
   27.5200   26.3800   33.4600 C   0  0  0  0  0  0  0  0  0  0  0  0
   28.1600   26.6300   34.6100 N   0  0  0  0  0  0  0  0  0  0  0  0
   29.4800   26.8500   34.5700 N   0  0  0  0  0  0  0  0  0  0  0  0
   30.1900   26.7800   33.4400 C   0  0  0  0  0  0  0  0  0  0  0  0
   31.5600   27.0500   33.5000 C   0  0  0  0  0  0  0  0  0  0  0  0
   32.2700   27.2400   32.3100 C   0  0  0  0  0  0  0  0  0  0  0  0
   31.6100   27.2500   31.0800 C   0  0  0  0  0  0  0  0  0  0  0  0
   30.2700   26.8700   31.0600 C   0  0  0  0  0  0  0  0  0  0  0  0
   29.5100   26.6900   32.2300 C   0  0  0  0  0  0  0  0  0  0  0  0
   28.1400   26.4100   32.2000 C   0  0  0  0  0  0  0  0  0  0  0  0
   27.4300   26.1300   31.0500 N   0  0  0  0  0  0  0  0  0  0  0  0
   23.9496   25.8926   34.9385 C   0  0  0  0  0  0  0  0  0  0  0  0
   23.2272   25.1623   34.0656 N   0  0  0  0  0  0  0  0  0  0  0  0
   22.0039   25.0953   34.6338 C   0  0  0  0  0  0  0  0  0  0  0  0
   20.8446   24.4034   33.9652 C   0  0  0  0  0  0  0  0  0  0  0  0
   20.2109   25.1757   32.8586 N   0  0  0  0  0  0  0  0  0  0  0  0
   20.3587   26.6548   32.8594 C   0  0  0  0  0  0  0  0  0  0  0  0
   19.4020   27.3328   33.8514 C   0  0  0  0  0  0  0  0  0  0  0  0
   20.0203   27.5144   35.1120 O   0  0  0  0  0  0  0  0  0  0  0  0
   19.5907   26.5585   36.0640 C   0  0  0  0  0  0  0  0  0  0  0  0
   20.8042   25.9018   36.7349 C   0  0  0  0  0  0  0  0  0  0  0  0
   21.9380   25.7617   35.8131 N   0  0  0  0  0  0  0  0  0  0  0  0
   23.1704   26.2628   36.0098 C   0  0  0  0  0  0  0  0  0  0  0  0
   20.4362   24.5748   31.5239 C   0  0  0  0  0  0  0  0  0  0  0  0
   21.8963   24.6914   31.0469 C   0  0  0  0  0  0  0  0  0  0  0  0
   22.0539   24.1517   29.6286 C   0  0  0  0  0  0  0  0  0  0  0  0
  1  2  1  0
  2  3  2  0
  2  4  1  0
  4  5  2  0
  5  6  1  0
  6  7  2  0
  7  8  1  0
  8  9  2  0
  9 10  1  0
 10 11  2  0
 11 12  1  0
 12 13  2  0
 13 14  1  0
  1 15  1  0
 15 16  1  0
 16 17  2  0
 17 18  1  0
 18 19  1  0
 19 20  1  0
 20 21  1  0
 21 22  1  0
 22 23  1  0
 23 24  1  0
 24 25  1  0
 25 26  1  0
 19 27  1  0
 27 28  1  0
 28 29  1  0
 13  4  1  0
 26 15  2  0
 12  7  1  0
 25 17  1  0
M  END
>  <AAScore>  (1) 
16461.789549119494

>  <RootName>  (1) 
./4ZLY/04_DeltaGEst/trajectory_03/rank_00/lead_0246

$$$$
