confid_15
     RDKit          3D

 26 28  0  0  0  0  0  0  0  0999 V2000
   24.5500   26.3900   36.2500 N   0  0  0  0  0  0  0  0  0  0  0  0
   25.6000   26.1300   35.4000 C   0  0  0  0  0  0  0  0  0  0  0  0
   25.4300   25.4300   34.4200 O   0  0  0  0  0  0  0  0  0  0  0  0
   26.9800   26.6300   35.7100 C   0  0  0  0  0  0  0  0  0  0  0  0
   27.3200   26.8200   36.9800 N   0  0  0  0  0  0  0  0  0  0  0  0
   28.4700   27.4000   37.3100 N   0  0  0  0  0  0  0  0  0  0  0  0
   29.4000   27.6300   36.3700 C   0  0  0  0  0  0  0  0  0  0  0  0
   30.6600   28.0500   36.8000 C   0  0  0  0  0  0  0  0  0  0  0  0
   31.5700   28.3600   35.7800 C   0  0  0  0  0  0  0  0  0  0  0  0
   31.3700   28.1000   34.4300 C   0  0  0  0  0  0  0  0  0  0  0  0
   30.1200   27.5900   34.0500 C   0  0  0  0  0  0  0  0  0  0  0  0
   29.1500   27.3400   35.0300 C   0  0  0  0  0  0  0  0  0  0  0  0
   27.8800   26.8900   34.6600 C   0  0  0  0  0  0  0  0  0  0  0  0
   27.4800   26.6100   33.3700 N   0  0  0  0  0  0  0  0  0  0  0  0
   23.2205   25.7760   36.1174 C   0  0  0  0  0  0  0  0  0  0  0  0
   22.1152   26.8489   36.3227 C   0  0  0  0  0  0  0  0  0  0  0  0
   21.0413   26.4270   37.3311 C   0  0  0  0  0  0  0  0  0  0  0  0
   21.6769   25.9799   38.5784 N   0  0  0  0  0  0  0  0  0  0  0  0
   21.1713   26.4093   39.8562 C   0  0  0  0  0  0  0  0  0  0  0  0
   21.7751   26.0807   40.9150 O   0  0  0  0  0  0  0  0  0  0  0  0
   20.0067   27.1847   39.9255 O   0  0  0  0  0  0  0  0  0  0  0  0
   19.4959   27.7383   41.1384 C   0  0  0  0  0  0  0  0  0  0  0  0
   20.3439   28.9393   41.5677 C   0  0  0  0  0  0  0  0  0  0  0  0
   18.0453   28.1613   40.9156 C   0  0  0  0  0  0  0  0  0  0  0  0
   22.8148   25.0489   38.5267 C   0  0  0  0  0  0  0  0  0  0  0  0
   23.1033   24.5865   37.0924 C   0  0  0  0  0  0  0  0  0  0  0  0
  1  2  1  0
  2  3  2  0
  2  4  1  0
  4  5  2  0
  5  6  1  0
  6  7  2  0
  7  8  1  0
  8  9  2  0
  9 10  1  0
 10 11  2  0
 11 12  1  0
 12 13  2  0
 13 14  1  0
  1 15  1  0
 15 16  1  0
 16 17  1  0
 17 18  1  0
 18 19  1  0
 19 20  2  0
 19 21  1  0
 21 22  1  0
 22 23  1  0
 22 24  1  0
 18 25  1  0
 25 26  1  0
 13  4  1  0
 26 15  1  0
 12  7  1  0
M  END
>  <AAScore>  (1) 
416.86868953299125

>  <RootName>  (1) 
./4ZLY/04_DeltaGEst/trajectory_01/rank_00/lead_0066

$$$$
