confid_5
     RDKit          3D

 27 30  0  0  0  0  0  0  0  0999 V2000
   24.5500   26.3900   36.2500 N   0  0  0  0  0  0  0  0  0  0  0  0
   25.6000   26.1300   35.4000 C   0  0  0  0  0  0  0  0  0  0  0  0
   25.4300   25.4300   34.4200 O   0  0  0  0  0  0  0  0  0  0  0  0
   26.9800   26.6300   35.7100 C   0  0  0  0  0  0  0  0  0  0  0  0
   27.3200   26.8200   36.9800 N   0  0  0  0  0  0  0  0  0  0  0  0
   28.4700   27.4000   37.3100 N   0  0  0  0  0  0  0  0  0  0  0  0
   29.4000   27.6300   36.3700 C   0  0  0  0  0  0  0  0  0  0  0  0
   30.6600   28.0500   36.8000 C   0  0  0  0  0  0  0  0  0  0  0  0
   31.5700   28.3600   35.7800 C   0  0  0  0  0  0  0  0  0  0  0  0
   31.3700   28.1000   34.4300 C   0  0  0  0  0  0  0  0  0  0  0  0
   30.1200   27.5900   34.0500 C   0  0  0  0  0  0  0  0  0  0  0  0
   29.1500   27.3400   35.0300 C   0  0  0  0  0  0  0  0  0  0  0  0
   27.8800   26.8900   34.6600 C   0  0  0  0  0  0  0  0  0  0  0  0
   27.4800   26.6100   33.3700 N   0  0  0  0  0  0  0  0  0  0  0  0
   23.2217   25.8443   36.1222 C   0  0  0  0  0  0  0  0  0  0  0  0
   22.9277   24.9313   35.1575 N   0  0  0  0  0  0  0  0  0  0  0  0
   21.6877   24.3951   35.0187 C   0  0  0  0  0  0  0  0  0  0  0  0
   20.6429   24.7738   35.8797 C   0  0  0  0  0  0  0  0  0  0  0  0
   19.2941   24.1618   35.7050 C   0  0  0  0  0  0  0  0  0  0  0  0
   19.1919   23.0781   35.0676 O   0  0  0  0  0  0  0  0  0  0  0  0
   18.0315   24.7651   36.2697 C   0  0  0  0  0  0  0  0  0  0  0  0
   18.0439   26.2993   36.2163 C   0  0  0  0  0  0  0  0  0  0  0  0
   18.7806   26.9235   37.4108 C   0  0  0  0  0  0  0  0  0  0  0  0
   19.9232   26.1078   37.8416 N   0  0  0  0  0  0  0  0  0  0  0  0
   20.9256   25.7173   36.8929 C   0  0  0  0  0  0  0  0  0  0  0  0
   22.2177   26.2449   37.0103 C   0  0  0  0  0  0  0  0  0  0  0  0
   20.0626   25.6717   39.2329 C   0  0  0  0  0  0  0  0  0  0  0  0
  1  2  1  0
  2  3  2  0
  2  4  1  0
  4  5  2  0
  5  6  1  0
  6  7  2  0
  7  8  1  0
  8  9  2  0
  9 10  1  0
 10 11  2  0
 11 12  1  0
 12 13  2  0
 13 14  1  0
  1 15  1  0
 15 16  2  0
 16 17  1  0
 17 18  2  0
 18 19  1  0
 19 20  2  0
 19 21  1  0
 21 22  1  0
 22 23  1  0
 23 24  1  0
 24 25  1  0
 25 26  2  0
 24 27  1  0
 13  4  1  0
 26 15  1  0
 12  7  1  0
 25 18  1  0
M  END
>  <AAScore>  (1) 
2179.275016604889

>  <RootName>  (1) 
./4ZLY/04_DeltaGEst/trajectory_01/rank_00/lead_0480

$$$$
