confid_9
     RDKit          3D

 27 30  0  0  0  0  0  0  0  0999 V2000
   24.6900   26.1200   35.5300 N   0  0  0  0  0  0  0  0  0  0  0  0
   25.6600   25.6700   34.6600 C   0  0  0  0  0  0  0  0  0  0  0  0
   25.2400   25.0100   33.7200 O   0  0  0  0  0  0  0  0  0  0  0  0
   27.0300   26.2200   34.8800 C   0  0  0  0  0  0  0  0  0  0  0  0
   27.3500   26.7300   36.0700 N   0  0  0  0  0  0  0  0  0  0  0  0
   28.5700   27.1800   36.3300 N   0  0  0  0  0  0  0  0  0  0  0  0
   29.5300   27.1100   35.3900 C   0  0  0  0  0  0  0  0  0  0  0  0
   30.8300   27.5700   35.6500 C   0  0  0  0  0  0  0  0  0  0  0  0
   31.8500   27.5400   34.6900 C   0  0  0  0  0  0  0  0  0  0  0  0
   31.5100   27.1200   33.4000 C   0  0  0  0  0  0  0  0  0  0  0  0
   30.2200   26.6300   33.1100 C   0  0  0  0  0  0  0  0  0  0  0  0
   29.2400   26.6600   34.1000 C   0  0  0  0  0  0  0  0  0  0  0  0
   27.9300   26.2600   33.8100 C   0  0  0  0  0  0  0  0  0  0  0  0
   27.5200   25.7100   32.6100 N   0  0  0  0  0  0  0  0  0  0  0  0
   31.1818   28.0681   37.0027 C   0  0  0  0  0  0  0  0  0  0  0  0
   31.0307   27.2329   38.1225 C   0  0  0  0  0  0  0  0  0  0  0  0
   31.3669   27.6948   39.3974 C   0  0  0  0  0  0  0  0  0  0  0  0
   31.2097   26.8631   40.5087 O   0  0  0  0  0  0  0  0  0  0  0  0
   31.4031   27.3598   41.8320 C   0  0  0  0  0  0  0  0  0  0  0  0
   32.5097   28.3255   41.8476 N   0  0  0  0  0  0  0  0  0  0  0  0
   32.2086   29.4619   40.9620 C   0  0  0  0  0  0  0  0  0  0  0  0
   31.8829   28.9883   39.5673 C   0  0  0  0  0  0  0  0  0  0  0  0
   32.0214   29.8330   38.4553 C   0  0  0  0  0  0  0  0  0  0  0  0
   32.4828   31.1004   38.6082 F   0  0  0  0  0  0  0  0  0  0  0  0
   31.6801   29.3729   37.1780 C   0  0  0  0  0  0  0  0  0  0  0  0
   31.8131   30.2066   36.1146 F   0  0  0  0  0  0  0  0  0  0  0  0
   32.6185   28.8050   43.1089 F   0  0  0  0  0  0  0  0  0  0  0  0
  1  2  1  0
  2  3  2  0
  2  4  1  0
  4  5  2  0
  5  6  1  0
  6  7  2  0
  7  8  1  0
  8  9  2  0
  9 10  1  0
 10 11  2  0
 11 12  1  0
 12 13  2  0
 13 14  1  0
  8 15  1  0
 15 16  2  0
 16 17  1  0
 17 18  1  0
 18 19  1  0
 19 20  1  0
 20 21  1  0
 21 22  1  0
 22 23  1  0
 23 24  1  0
 23 25  2  0
 25 26  1  0
 20 27  1  0
 13  4  1  0
 25 15  1  0
 12  7  1  0
 22 17  2  0
M  END
>  <AAScore>  (1) 
9.344184266270284

>  <RootName>  (1) 
./4ZLY/04_DeltaGEst/trajectory_02/rank_01/lead_0041

$$$$
