confid_16
     RDKit          3D

 29 33  0  0  0  0  0  0  0  0999 V2000
   24.5700   26.8800   35.5900 N   0  0  0  0  0  0  0  0  0  0  0  0
   25.5000   26.4000   34.6900 C   0  0  0  0  0  0  0  0  0  0  0  0
   25.1700   25.5200   33.9100 O   0  0  0  0  0  0  0  0  0  0  0  0
   26.8400   27.0200   34.7400 C   0  0  0  0  0  0  0  0  0  0  0  0
   27.3800   27.2800   35.9400 N   0  0  0  0  0  0  0  0  0  0  0  0
   28.6200   27.7400   36.0300 N   0  0  0  0  0  0  0  0  0  0  0  0
   29.3800   28.0000   34.9600 C   0  0  0  0  0  0  0  0  0  0  0  0
   30.6700   28.5000   35.1300 C   0  0  0  0  0  0  0  0  0  0  0  0
   31.5400   28.6100   34.0300 C   0  0  0  0  0  0  0  0  0  0  0  0
   31.0900   28.2200   32.7700 C   0  0  0  0  0  0  0  0  0  0  0  0
   29.8000   27.7000   32.6000 C   0  0  0  0  0  0  0  0  0  0  0  0
   28.9600   27.5500   33.7100 C   0  0  0  0  0  0  0  0  0  0  0  0
   27.6600   27.0300   33.5900 C   0  0  0  0  0  0  0  0  0  0  0  0
   27.1600   26.7400   32.3400 N   0  0  0  0  0  0  0  0  0  0  0  0
   23.1718   26.5433   35.5781 C   0  0  0  0  0  0  0  0  0  0  0  0
   22.5134   26.4219   36.8211 N   0  0  0  0  0  0  0  0  0  0  0  0
   21.1749   26.1077   37.0054 C   0  0  0  0  0  0  0  0  0  0  0  0
   20.5355   25.9304   35.8218 C   0  0  0  0  0  0  0  0  0  0  0  0
   19.8151   25.7320   34.6422 C   0  0  1  0  0  0  0  0  0  0  0  0
   18.8156   26.8282   34.2421 C   0  0  0  0  0  0  0  0  0  0  0  0
   21.1709   26.0597   34.5209 C   0  0  0  0  0  0  0  0  0  0  0  0
   22.4746   26.3743   34.3153 C   0  0  0  0  0  0  0  0  0  0  0  0
   19.5172   24.3165   34.3531 N   0  0  0  0  0  0  0  0  0  0  0  0
   19.4070   24.0623   32.9022 C   0  0  0  0  0  0  0  0  0  0  0  0
   18.9344   22.6255   32.6480 C   0  0  0  0  0  0  0  0  0  0  0  0
   17.6290   22.3246   33.2917 N   0  0  0  0  0  0  0  0  0  0  0  0
   17.1998   23.3362   34.2811 C   0  0  0  0  0  0  0  0  0  0  0  0
   18.3797   23.7927   35.1515 C   0  0  0  0  0  0  0  0  0  0  0  0
   16.5708   22.1133   32.2916 C   0  0  0  0  0  0  0  0  0  0  0  0
  1  2  1  0
  2  3  2  0
  2  4  1  0
  4  5  2  0
  5  6  1  0
  6  7  2  0
  7  8  1  0
  8  9  2  0
  9 10  1  0
 10 11  2  0
 11 12  1  0
 12 13  2  0
 13 14  1  0
  1 15  1  0
 15 16  2  0
 16 17  1  0
 17 18  2  0
 18 19  1  0
 19 20  1  6
 19 21  1  0
 21 22  2  0
 19 23  1  0
 23 24  1  0
 24 25  1  0
 25 26  1  0
 26 27  1  0
 27 28  1  0
 26 29  1  0
 13  4  1  0
 22 15  1  0
 28 23  1  0
 12  7  1  0
 21 18  1  0
M  END
>  <AAScore>  (1) 
75.24061033663256

>  <RootName>  (1) 
./4ZLY/04_DeltaGEst/trajectory_05/rank_00/lead_0343

$$$$
