confid_17
     RDKit          3D

 28 32  0  0  0  0  0  0  0  0999 V2000
   24.2000   26.2400   35.6900 N   0  0  0  0  0  0  0  0  0  0  0  0
   24.8500   26.2800   34.4800 C   0  0  0  0  0  0  0  0  0  0  0  0
   24.3100   25.7400   33.5400 O   0  0  0  0  0  0  0  0  0  0  0  0
   26.1800   26.9700   34.4700 C   0  0  0  0  0  0  0  0  0  0  0  0
   26.6500   27.6000   35.5500 N   0  0  0  0  0  0  0  0  0  0  0  0
   27.7900   28.2700   35.6200 N   0  0  0  0  0  0  0  0  0  0  0  0
   28.5400   28.3000   34.5100 C   0  0  0  0  0  0  0  0  0  0  0  0
   29.7700   28.9400   34.5600 C   0  0  0  0  0  0  0  0  0  0  0  0
   30.7000   28.8900   33.5000 C   0  0  0  0  0  0  0  0  0  0  0  0
   30.3700   28.1400   32.3700 C   0  0  0  0  0  0  0  0  0  0  0  0
   29.1200   27.5200   32.2800 C   0  0  0  0  0  0  0  0  0  0  0  0
   28.2100   27.6100   33.3300 C   0  0  0  0  0  0  0  0  0  0  0  0
   26.9700   26.9700   33.3100 C   0  0  0  0  0  0  0  0  0  0  0  0
   26.5300   26.2400   32.2200 N   0  0  0  0  0  0  0  0  0  0  0  0
   22.7674   26.1342   35.8269 C   0  0  0  0  0  0  0  0  0  0  0  0
   21.9559   26.4116   34.7360 N   0  0  0  0  0  0  0  0  0  0  0  0
   20.5857   26.3689   34.7654 C   0  0  0  0  0  0  0  0  0  0  0  0
   20.0151   26.0400   35.9719 C   0  0  0  0  0  0  0  0  0  0  0  0
   18.7642   25.7906   36.7520 C   0  0  2  0  0  0  0  0  0  0  0  0
   17.8829   27.0393   36.9332 C   0  0  0  0  0  0  0  0  0  0  0  0
   17.0997   27.2959   35.7071 N   0  0  0  0  0  0  0  0  0  0  0  0
   17.7412   28.2679   34.8206 C   0  0  0  0  0  0  0  0  0  0  0  0
   16.8086   29.2899   35.0451 O   0  0  0  0  0  0  0  0  0  0  0  0
   16.1562   28.3960   35.9057 C   0  0  0  0  0  0  0  0  0  0  0  0
   19.5838   25.4784   37.9171 C   0  0  0  0  0  0  0  0  0  0  0  0
   20.8060   25.7415   37.1044 C   0  0  0  0  0  0  0  0  0  0  0  0
   22.1874   25.7746   37.0865 C   0  0  0  0  0  0  0  0  0  0  0  0
   22.9869   25.4565   38.3149 C   0  0  0  0  0  0  0  0  0  0  0  0
  1  2  1  0
  2  3  2  0
  2  4  1  0
  4  5  2  0
  5  6  1  0
  6  7  2  0
  7  8  1  0
  8  9  2  0
  9 10  1  0
 10 11  2  0
 11 12  1  0
 12 13  2  0
 13 14  1  0
  1 15  1  0
 15 16  2  0
 16 17  1  0
 17 18  2  0
 18 19  1  0
 19 20  1  1
 20 21  1  0
 21 22  1  0
 22 23  1  0
 23 24  1  0
 19 25  1  0
 25 26  1  0
 26 27  2  0
 27 28  1  0
 13  4  1  0
 27 15  1  0
 12  7  1  0
 26 18  1  0
 24 21  1  0
M  END
>  <AAScore>  (1) 
241.57227132607437

>  <RootName>  (1) 
./4ZLY/04_DeltaGEst/trajectory_04/rank_00/lead_0045

$$$$
