confid_8
     RDKit          3D

 29 32  0  0  0  0  0  0  0  0999 V2000
   25.3300   26.2600   34.7600 N   0  0  0  0  0  0  0  0  0  0  0  0
   26.1200   25.9200   33.6900 C   0  0  0  0  0  0  0  0  0  0  0  0
   25.6300   25.1100   32.9400 O   0  0  0  0  0  0  0  0  0  0  0  0
   27.5200   26.3800   33.4600 C   0  0  0  0  0  0  0  0  0  0  0  0
   28.1600   26.6300   34.6100 N   0  0  0  0  0  0  0  0  0  0  0  0
   29.4800   26.8500   34.5700 N   0  0  0  0  0  0  0  0  0  0  0  0
   30.1900   26.7800   33.4400 C   0  0  0  0  0  0  0  0  0  0  0  0
   31.5600   27.0500   33.5000 C   0  0  0  0  0  0  0  0  0  0  0  0
   32.2700   27.2400   32.3100 C   0  0  0  0  0  0  0  0  0  0  0  0
   31.6100   27.2500   31.0800 C   0  0  0  0  0  0  0  0  0  0  0  0
   30.2700   26.8700   31.0600 C   0  0  0  0  0  0  0  0  0  0  0  0
   29.5100   26.6900   32.2300 C   0  0  0  0  0  0  0  0  0  0  0  0
   28.1400   26.4100   32.2000 C   0  0  0  0  0  0  0  0  0  0  0  0
   27.4300   26.1300   31.0500 N   0  0  0  0  0  0  0  0  0  0  0  0
   26.4493   27.1125   30.5686 C   0  0  0  0  0  0  0  0  0  0  0  0
   26.8429   27.6589   29.1997 C   0  0  0  0  0  0  0  0  0  0  0  0
   26.9676   26.5724   28.2279 N   0  0  0  0  0  0  0  0  0  0  0  0
   25.7978   26.0336   27.5358 C   0  0  0  0  0  0  0  0  0  0  0  0
   28.2517   25.9793   28.0111 C   0  0  0  0  0  0  0  0  0  0  0  0
   28.6537   24.8334   28.7316 C   0  0  0  0  0  0  0  0  0  0  0  0
   29.9362   24.2960   28.5030 C   0  0  0  0  0  0  0  0  0  0  0  0
   30.3596   23.2017   29.1857 F   0  0  0  0  0  0  0  0  0  0  0  0
   30.8041   24.9026   27.5908 C   0  0  0  0  0  0  0  0  0  0  0  0
   30.4035   26.0410   26.8911 C   0  0  0  0  0  0  0  0  0  0  0  0
   29.1326   26.5778   27.1002 C   0  0  0  0  0  0  0  0  0  0  0  0
   27.7449   24.1687   29.6944 C   0  0  0  0  0  0  0  0  0  0  0  0
   27.2289   24.7757   30.7225 N   0  0  0  0  0  0  0  0  0  0  0  0
   27.4494   22.7721   29.5163 C   0  0  0  0  0  0  0  0  0  0  0  0
   27.2117   21.6488   29.3726 N   0  0  0  0  0  0  0  0  0  0  0  0
  1  2  1  0
  2  3  2  0
  2  4  1  0
  4  5  2  0
  5  6  1  0
  6  7  2  0
  7  8  1  0
  8  9  2  0
  9 10  1  0
 10 11  2  0
 11 12  1  0
 12 13  2  0
 13 14  1  0
 14 15  1  0
 15 16  1  0
 16 17  1  0
 17 18  1  0
 17 19  1  0
 19 20  2  0
 20 21  1  0
 21 22  1  0
 21 23  2  0
 23 24  1  0
 24 25  2  0
 20 26  1  0
 26 27  2  0
 26 28  1  0
 28 29  3  0
 13  4  1  0
 27 14  1  0
 12  7  1  0
 25 19  1  0
M  END
>  <AAScore>  (1) 
6.143919948223775

>  <RootName>  (1) 
./4ZLY/04_DeltaGEst/trajectory_03/rank_01/lead_0374

$$$$
