confid_8
     RDKit          3D

 26 29  0  0  0  0  0  0  0  0999 V2000
   24.4800   26.1000   36.1300 N   0  0  0  0  0  0  0  0  0  0  0  0
   25.2500   26.2500   34.9900 C   0  0  0  0  0  0  0  0  0  0  0  0
   24.7400   25.7600   33.9900 O   0  0  0  0  0  0  0  0  0  0  0  0
   26.5900   26.8900   34.9600 C   0  0  0  0  0  0  0  0  0  0  0  0
   27.0600   27.2400   36.1600 N   0  0  0  0  0  0  0  0  0  0  0  0
   28.3000   27.7100   36.2400 N   0  0  0  0  0  0  0  0  0  0  0  0
   29.0500   27.9600   35.1500 C   0  0  0  0  0  0  0  0  0  0  0  0
   30.3400   28.4900   35.2600 C   0  0  0  0  0  0  0  0  0  0  0  0
   31.1100   28.8200   34.1400 C   0  0  0  0  0  0  0  0  0  0  0  0
   30.5200   28.6700   32.8800 C   0  0  0  0  0  0  0  0  0  0  0  0
   29.2900   28.0200   32.7700 C   0  0  0  0  0  0  0  0  0  0  0  0
   28.5200   27.7100   33.8900 C   0  0  0  0  0  0  0  0  0  0  0  0
   27.2700   27.0800   33.7600 C   0  0  0  0  0  0  0  0  0  0  0  0
   26.7500   26.8800   32.4900 N   0  0  0  0  0  0  0  0  0  0  0  0
   23.0478   25.9763   36.1664 C   0  0  0  0  0  0  0  0  0  0  0  0
   22.3785   25.6892   37.3074 N   0  0  0  0  0  0  0  0  0  0  0  0
   21.0355   25.6566   37.1037 C   0  0  0  0  0  0  0  0  0  0  0  0
   20.0574   25.2885   38.1758 C   0  0  0  0  0  0  0  0  0  0  0  0
   18.6959   25.7578   37.8571 N   0  0  0  0  0  0  0  0  0  0  0  0
   17.7100   25.8511   38.9367 C   0  0  0  0  0  0  0  0  0  0  0  0
   18.2735   26.0103   36.4946 C   0  0  0  0  0  0  0  0  0  0  0  0
   17.0917   26.3851   36.2594 O   0  0  0  0  0  0  0  0  0  0  0  0
   19.2150   25.8119   35.3316 C   0  0  1  0  0  0  0  0  0  0  0  0
   20.6305   25.9143   35.8042 C   0  0  0  0  0  0  0  0  0  0  0  0
   21.9914   26.2029   34.8599 S   0  0  0  0  0  0  0  0  0  0  0  0
   18.9729   24.4447   34.6858 C   0  0  0  0  0  0  0  0  0  0  0  0
  1  2  1  0
  2  3  2  0
  2  4  1  0
  4  5  2  0
  5  6  1  0
  6  7  2  0
  7  8  1  0
  8  9  2  0
  9 10  1  0
 10 11  2  0
 11 12  1  0
 12 13  2  0
 13 14  1  0
  1 15  1  0
 15 16  2  0
 16 17  1  0
 17 18  1  0
 18 19  1  0
 19 20  1  0
 19 21  1  0
 21 22  2  0
 21 23  1  0
 23 24  1  0
 24 25  1  0
 23 26  1  1
 13  4  1  0
 25 15  1  0
 12  7  1  0
 24 17  2  0
M  END
>  <AAScore>  (1) 
4610.397800592542

>  <RootName>  (1) 
./4ZLY/04_DeltaGEst/trajectory_00/rank_01/lead_0428

$$$$
