confid_15
     RDKit          3D

 27 30  0  0  0  0  0  0  0  0999 V2000
   24.6900   26.1200   35.5300 N   0  0  0  0  0  0  0  0  0  0  0  0
   25.6600   25.6700   34.6600 C   0  0  0  0  0  0  0  0  0  0  0  0
   25.2400   25.0100   33.7200 O   0  0  0  0  0  0  0  0  0  0  0  0
   27.0300   26.2200   34.8800 C   0  0  0  0  0  0  0  0  0  0  0  0
   27.3500   26.7300   36.0700 N   0  0  0  0  0  0  0  0  0  0  0  0
   28.5700   27.1800   36.3300 N   0  0  0  0  0  0  0  0  0  0  0  0
   29.5300   27.1100   35.3900 C   0  0  0  0  0  0  0  0  0  0  0  0
   30.8300   27.5700   35.6500 C   0  0  0  0  0  0  0  0  0  0  0  0
   31.8500   27.5400   34.6900 C   0  0  0  0  0  0  0  0  0  0  0  0
   31.5100   27.1200   33.4000 C   0  0  0  0  0  0  0  0  0  0  0  0
   30.2200   26.6300   33.1100 C   0  0  0  0  0  0  0  0  0  0  0  0
   29.2400   26.6600   34.1000 C   0  0  0  0  0  0  0  0  0  0  0  0
   27.9300   26.2600   33.8100 C   0  0  0  0  0  0  0  0  0  0  0  0
   27.5200   25.7100   32.6100 N   0  0  0  0  0  0  0  0  0  0  0  0
   31.1475   28.0556   36.9646 N   0  0  0  0  0  0  0  0  0  0  0  0
   31.6499   29.4335   37.1236 C   0  0  0  0  0  0  0  0  0  0  0  0
   31.0661   30.0878   38.3879 C   0  0  0  0  0  0  0  0  0  0  0  0
   31.1214   29.1207   39.5271 C   0  0  0  0  0  0  0  0  0  0  0  0
   31.0616   29.3338   40.8900 C   0  0  0  0  0  0  0  0  0  0  0  0
   31.1379   28.1464   41.5292 N   0  0  0  0  0  0  0  0  0  0  0  0
   31.1966   27.1916   40.6074 N   0  0  0  0  0  0  0  0  0  0  0  0
   31.3750   25.7682   40.9143 C   0  0  0  0  0  0  0  0  0  0  0  0
   32.8310   25.4986   41.2981 C   0  0  0  0  0  0  0  0  0  0  0  0
   30.4230   25.3366   42.0341 C   0  0  0  0  0  0  0  0  0  0  0  0
   31.1835   27.7609   39.3832 C   0  0  0  0  0  0  0  0  0  0  0  0
   31.3226   27.0795   38.0552 C   0  0  0  0  0  0  0  0  0  0  0  0
   31.0206   30.6560   41.5813 C   0  0  0  0  0  0  0  0  0  0  0  0
  1  2  1  0
  2  3  2  0
  2  4  1  0
  4  5  2  0
  5  6  1  0
  6  7  2  0
  7  8  1  0
  8  9  2  0
  9 10  1  0
 10 11  2  0
 11 12  1  0
 12 13  2  0
 13 14  1  0
  8 15  1  0
 15 16  1  0
 16 17  1  0
 17 18  1  0
 18 19  1  0
 19 20  2  0
 20 21  1  0
 21 22  1  0
 22 23  1  0
 22 24  1  0
 21 25  1  0
 25 26  1  0
 19 27  1  0
 13  4  1  0
 26 15  1  0
 12  7  1  0
 25 18  2  0
M  END
>  <AAScore>  (1) 
-7.871555803664833

>  <RootName>  (1) 
./4ZLY/04_DeltaGEst/trajectory_02/rank_01/lead_0149

$$$$
