confid_11
     RDKit          3D

 29 32  0  0  0  0  0  0  0  0999 V2000
   24.5700   26.8800   35.5900 N   0  0  0  0  0  0  0  0  0  0  0  0
   25.5000   26.4000   34.6900 C   0  0  0  0  0  0  0  0  0  0  0  0
   25.1700   25.5200   33.9100 O   0  0  0  0  0  0  0  0  0  0  0  0
   26.8400   27.0200   34.7400 C   0  0  0  0  0  0  0  0  0  0  0  0
   27.3800   27.2800   35.9400 N   0  0  0  0  0  0  0  0  0  0  0  0
   28.6200   27.7400   36.0300 N   0  0  0  0  0  0  0  0  0  0  0  0
   29.3800   28.0000   34.9600 C   0  0  0  0  0  0  0  0  0  0  0  0
   30.6700   28.5000   35.1300 C   0  0  0  0  0  0  0  0  0  0  0  0
   31.5400   28.6100   34.0300 C   0  0  0  0  0  0  0  0  0  0  0  0
   31.0900   28.2200   32.7700 C   0  0  0  0  0  0  0  0  0  0  0  0
   29.8000   27.7000   32.6000 C   0  0  0  0  0  0  0  0  0  0  0  0
   28.9600   27.5500   33.7100 C   0  0  0  0  0  0  0  0  0  0  0  0
   27.6600   27.0300   33.5900 C   0  0  0  0  0  0  0  0  0  0  0  0
   27.1600   26.7400   32.3400 N   0  0  0  0  0  0  0  0  0  0  0  0
   23.1535   26.6513   35.4932 C   0  0  0  0  0  0  0  0  0  0  0  0
   22.4285   26.5168   36.6341 N   0  0  0  0  0  0  0  0  0  0  0  0
   21.0870   26.3083   36.6201 C   0  0  0  0  0  0  0  0  0  0  0  0
   20.3882   26.2367   35.4046 C   0  0  0  0  0  0  0  0  0  0  0  0
   18.8971   25.9898   35.4190 C   0  0  0  0  0  0  0  0  0  0  0  0
   18.5917   24.6920   34.7594 N   0  0  0  0  0  0  0  0  0  0  0  0
   17.9349   23.7265   35.6668 C   0  0  0  0  0  0  0  0  0  0  0  0
   18.9242   23.1900   36.7006 C   0  0  0  0  0  0  0  0  0  0  0  0
   17.8570   24.8509   33.4769 C   0  0  0  0  0  0  0  0  0  0  0  0
   18.7820   24.5647   32.2780 C   0  0  0  0  0  0  0  0  0  0  0  0
   20.1989   24.8649   32.5722 N   0  0  0  0  0  0  0  0  0  0  0  0
   21.0650   24.3760   31.4877 C   0  0  0  0  0  0  0  0  0  0  0  0
   20.4412   26.2983   32.8508 C   0  0  0  0  0  0  0  0  0  0  0  0
   21.1090   26.4153   34.1984 C   0  0  0  0  0  0  0  0  0  0  0  0
   22.4967   26.6176   34.2535 C   0  0  0  0  0  0  0  0  0  0  0  0
  1  2  1  0
  2  3  2  0
  2  4  1  0
  4  5  2  0
  5  6  1  0
  6  7  2  0
  7  8  1  0
  8  9  2  0
  9 10  1  0
 10 11  2  0
 11 12  1  0
 12 13  2  0
 13 14  1  0
  1 15  1  0
 15 16  2  0
 16 17  1  0
 17 18  2  0
 18 19  1  0
 19 20  1  0
 20 21  1  0
 21 22  1  0
 20 23  1  0
 23 24  1  0
 24 25  1  0
 25 26  1  0
 25 27  1  0
 27 28  1  0
 28 29  2  0
 13  4  1  0
 29 15  1  0
 12  7  1  0
 28 18  1  0
M  END
>  <AAScore>  (1) 
8548.964570332502

>  <RootName>  (1) 
./4ZLY/04_DeltaGEst/trajectory_05/rank_00/lead_0079

$$$$
