confid_0
     RDKit          3D

 27 31  0  0  0  0  0  0  0  0999 V2000
   24.2000   26.2400   35.6900 N   0  0  0  0  0  0  0  0  0  0  0  0
   24.8500   26.2800   34.4800 C   0  0  0  0  0  0  0  0  0  0  0  0
   24.3100   25.7400   33.5400 O   0  0  0  0  0  0  0  0  0  0  0  0
   26.1800   26.9700   34.4700 C   0  0  0  0  0  0  0  0  0  0  0  0
   26.6500   27.6000   35.5500 N   0  0  0  0  0  0  0  0  0  0  0  0
   27.7900   28.2700   35.6200 N   0  0  0  0  0  0  0  0  0  0  0  0
   28.5400   28.3000   34.5100 C   0  0  0  0  0  0  0  0  0  0  0  0
   29.7700   28.9400   34.5600 C   0  0  0  0  0  0  0  0  0  0  0  0
   30.7000   28.8900   33.5000 C   0  0  0  0  0  0  0  0  0  0  0  0
   30.3700   28.1400   32.3700 C   0  0  0  0  0  0  0  0  0  0  0  0
   29.1200   27.5200   32.2800 C   0  0  0  0  0  0  0  0  0  0  0  0
   28.2100   27.6100   33.3300 C   0  0  0  0  0  0  0  0  0  0  0  0
   26.9700   26.9700   33.3100 C   0  0  0  0  0  0  0  0  0  0  0  0
   26.5300   26.2400   32.2200 N   0  0  0  0  0  0  0  0  0  0  0  0
   23.2074   25.2638   36.0521 C   0  0  0  0  0  0  0  0  0  0  0  0
   22.5084   25.4189   37.2067 N   0  0  0  0  0  0  0  0  0  0  0  0
   21.5809   24.5080   37.5964 C   0  0  0  0  0  0  0  0  0  0  0  0
   21.3348   23.3738   36.8150 C   0  0  0  0  0  0  0  0  0  0  0  0
   20.2404   22.4135   37.2206 C   0  0  0  0  0  0  0  0  0  0  0  0
   20.3293   21.0625   36.5008 C   0  0  0  0  0  0  0  0  0  0  0  0
   20.5935   21.2677   34.9996 C   0  0  0  0  0  0  0  0  0  0  0  0
   19.3971   21.7587   34.2022 C   0  0  0  0  0  0  0  0  0  0  0  0
   19.3143   20.5616   33.4642 O   0  0  0  0  0  0  0  0  0  0  0  0
   20.4163   20.0199   34.1553 C   0  0  0  0  0  0  0  0  0  0  0  0
   21.9095   22.0210   34.7309 C   0  0  0  0  0  0  0  0  0  0  0  0
   22.0549   23.2344   35.6098 C   0  0  0  0  0  0  0  0  0  0  0  0
   22.9817   24.1703   35.2744 N   0  0  0  0  0  0  0  0  0  0  0  0
  1  2  1  0
  2  3  2  0
  2  4  1  0
  4  5  2  0
  5  6  1  0
  6  7  2  0
  7  8  1  0
  8  9  2  0
  9 10  1  0
 10 11  2  0
 11 12  1  0
 12 13  2  0
 13 14  1  0
  1 15  1  0
 15 16  2  0
 16 17  1  0
 17 18  2  0
 18 19  1  0
 19 20  1  0
 20 21  1  0
 21 22  1  0
 22 23  1  0
 23 24  1  0
 21 25  1  0
 25 26  1  0
 26 27  2  0
 13  4  1  0
 27 15  1  0
 12  7  1  0
 26 18  1  0
 24 21  1  0
M  END
>  <AAScore>  (1) 
1367.0747587989154

>  <RootName>  (1) 
./4ZLY/04_DeltaGEst/trajectory_04/rank_00/lead_0351

$$$$
