confid_15
     RDKit          3D

 28 30  0  0  0  0  0  0  0  0999 V2000
   24.5700   26.8800   35.5900 N   0  0  0  0  0  0  0  0  0  0  0  0
   25.5000   26.4000   34.6900 C   0  0  0  0  0  0  0  0  0  0  0  0
   25.1700   25.5200   33.9100 O   0  0  0  0  0  0  0  0  0  0  0  0
   26.8400   27.0200   34.7400 C   0  0  0  0  0  0  0  0  0  0  0  0
   27.3800   27.2800   35.9400 N   0  0  0  0  0  0  0  0  0  0  0  0
   28.6200   27.7400   36.0300 N   0  0  0  0  0  0  0  0  0  0  0  0
   29.3800   28.0000   34.9600 C   0  0  0  0  0  0  0  0  0  0  0  0
   30.6700   28.5000   35.1300 C   0  0  0  0  0  0  0  0  0  0  0  0
   31.5400   28.6100   34.0300 C   0  0  0  0  0  0  0  0  0  0  0  0
   31.0900   28.2200   32.7700 C   0  0  0  0  0  0  0  0  0  0  0  0
   29.8000   27.7000   32.6000 C   0  0  0  0  0  0  0  0  0  0  0  0
   28.9600   27.5500   33.7100 C   0  0  0  0  0  0  0  0  0  0  0  0
   27.6600   27.0300   33.5900 C   0  0  0  0  0  0  0  0  0  0  0  0
   27.1600   26.7400   32.3400 N   0  0  0  0  0  0  0  0  0  0  0  0
   33.1490   29.2981   34.2138 S   0  0  0  0  0  6  0  0  0  0  0  0
   33.5349   29.3366   35.6676 O   0  0  0  0  0  0  0  0  0  0  0  0
   34.1375   28.4398   33.4750 O   0  0  0  0  0  0  0  0  0  0  0  0
   33.1447   30.9038   33.5364 N   0  0  0  0  0  0  0  0  0  0  0  0
   32.2582   31.7928   34.2811 C   0  0  0  0  0  0  0  0  0  0  0  0
   32.7289   33.2198   33.9675 C   0  0  2  0  0  0  0  0  0  0  0  0
   31.8888   33.9820   32.8665 C   0  0  0  0  0  0  0  0  0  0  0  0
   32.4917   35.3949   32.6550 C   0  0  0  0  0  0  0  0  0  0  0  0
   30.4352   34.1961   33.3626 C   0  0  0  0  0  0  0  0  0  0  0  0
   31.8636   33.2477   31.4928 C   0  0  0  0  0  0  0  0  0  0  0  0
   31.1515   32.0294   31.5797 O   0  0  0  0  0  0  0  0  0  0  0  0
   31.2911   31.3086   30.3767 C   0  0  0  0  0  0  0  0  0  0  0  0
   34.2228   33.0337   33.6315 C   0  0  0  0  0  0  0  0  0  0  0  0
   34.4614   31.5283   33.6166 C   0  0  0  0  0  0  0  0  0  0  0  0
  1  2  1  0
  2  3  2  0
  2  4  1  0
  4  5  2  0
  5  6  1  0
  6  7  2  0
  7  8  1  0
  8  9  2  0
  9 10  1  0
 10 11  2  0
 11 12  1  0
 12 13  2  0
 13 14  1  0
  9 15  1  0
 15 16  2  0
 15 17  2  0
 15 18  1  0
 18 19  1  0
 19 20  1  0
 20 21  1  6
 21 22  1  0
 21 23  1  0
 21 24  1  0
 24 25  1  0
 25 26  1  0
 20 27  1  0
 27 28  1  0
 13  4  1  0
 28 18  1  0
 12  7  1  0
M  END
>  <AAScore>  (1) 
20.28042330806831

>  <RootName>  (1) 
./4ZLY/04_DeltaGEst/trajectory_05/rank_01/lead_0252

$$$$
