confid_13
     RDKit          3D

 28 30  0  0  0  0  0  0  0  0999 V2000
   24.4800   26.1000   36.1300 N   0  0  0  0  0  0  0  0  0  0  0  0
   25.2500   26.2500   34.9900 C   0  0  0  0  0  0  0  0  0  0  0  0
   24.7400   25.7600   33.9900 O   0  0  0  0  0  0  0  0  0  0  0  0
   26.5900   26.8900   34.9600 C   0  0  0  0  0  0  0  0  0  0  0  0
   27.0600   27.2400   36.1600 N   0  0  0  0  0  0  0  0  0  0  0  0
   28.3000   27.7100   36.2400 N   0  0  0  0  0  0  0  0  0  0  0  0
   29.0500   27.9600   35.1500 C   0  0  0  0  0  0  0  0  0  0  0  0
   30.3400   28.4900   35.2600 C   0  0  0  0  0  0  0  0  0  0  0  0
   31.1100   28.8200   34.1400 C   0  0  0  0  0  0  0  0  0  0  0  0
   30.5200   28.6700   32.8800 C   0  0  0  0  0  0  0  0  0  0  0  0
   29.2900   28.0200   32.7700 C   0  0  0  0  0  0  0  0  0  0  0  0
   28.5200   27.7100   33.8900 C   0  0  0  0  0  0  0  0  0  0  0  0
   27.2700   27.0800   33.7600 C   0  0  0  0  0  0  0  0  0  0  0  0
   26.7500   26.8800   32.4900 N   0  0  0  0  0  0  0  0  0  0  0  0
   23.3630   25.1956   36.2596 C   0  0  0  0  0  0  0  0  0  0  0  0
   23.4719   23.8709   35.7995 C   0  0  0  0  0  0  0  0  0  0  0  0
   22.4144   22.9679   35.9631 C   0  0  0  0  0  0  0  0  0  0  0  0
   22.5780   21.3006   35.4061 S   0  0  0  0  0  6  0  0  0  0  0  0
   23.4730   21.2689   34.1982 O   0  0  0  0  0  0  0  0  0  0  0  0
   21.2273   20.7811   34.9966 O   0  0  0  0  0  0  0  0  0  0  0  0
   23.2466   20.2699   36.6484 N   0  0  0  0  0  0  0  0  0  0  0  0
   24.5710   20.7639   37.0475 C   0  0  0  0  0  0  0  0  0  0  0  0
   22.3459   20.2375   37.8072 C   0  0  0  0  0  0  0  0  0  0  0  0
   21.2388   23.3865   36.5944 C   0  0  0  0  0  0  0  0  0  0  0  0
   21.1203   24.6934   37.0725 C   0  0  0  0  0  0  0  0  0  0  0  0
   22.1748   25.6122   36.9053 C   0  0  0  0  0  0  0  0  0  0  0  0
   22.0357   27.0231   37.4163 C   0  0  0  0  0  0  0  0  0  0  0  0
   19.9784   25.0550   37.7133 F   0  0  0  0  0  0  0  0  0  0  0  0
  1  2  1  0
  2  3  2  0
  2  4  1  0
  4  5  2  0
  5  6  1  0
  6  7  2  0
  7  8  1  0
  8  9  2  0
  9 10  1  0
 10 11  2  0
 11 12  1  0
 12 13  2  0
 13 14  1  0
  1 15  1  0
 15 16  2  0
 16 17  1  0
 17 18  1  0
 18 19  2  0
 18 20  2  0
 18 21  1  0
 21 22  1  0
 21 23  1  0
 17 24  2  0
 24 25  1  0
 25 26  2  0
 26 27  1  0
 25 28  1  0
 13  4  1  0
 26 15  1  0
 12  7  1  0
M  END
>  <AAScore>  (1) 
1872.4992561691347

>  <RootName>  (1) 
./4ZLY/04_DeltaGEst/trajectory_00/rank_00/lead_0195

$$$$
