confid_7
     RDKit          3D

 28 31  0  0  0  0  0  0  0  0999 V2000
   24.4800   26.1000   36.1300 N   0  0  0  0  0  0  0  0  0  0  0  0
   25.2500   26.2500   34.9900 C   0  0  0  0  0  0  0  0  0  0  0  0
   24.7400   25.7600   33.9900 O   0  0  0  0  0  0  0  0  0  0  0  0
   26.5900   26.8900   34.9600 C   0  0  0  0  0  0  0  0  0  0  0  0
   27.0600   27.2400   36.1600 N   0  0  0  0  0  0  0  0  0  0  0  0
   28.3000   27.7100   36.2400 N   0  0  0  0  0  0  0  0  0  0  0  0
   29.0500   27.9600   35.1500 C   0  0  0  0  0  0  0  0  0  0  0  0
   30.3400   28.4900   35.2600 C   0  0  0  0  0  0  0  0  0  0  0  0
   31.1100   28.8200   34.1400 C   0  0  0  0  0  0  0  0  0  0  0  0
   30.5200   28.6700   32.8800 C   0  0  0  0  0  0  0  0  0  0  0  0
   29.2900   28.0200   32.7700 C   0  0  0  0  0  0  0  0  0  0  0  0
   28.5200   27.7100   33.8900 C   0  0  0  0  0  0  0  0  0  0  0  0
   27.2700   27.0800   33.7600 C   0  0  0  0  0  0  0  0  0  0  0  0
   26.7500   26.8800   32.4900 N   0  0  0  0  0  0  0  0  0  0  0  0
   23.0843   25.7674   36.1058 C   0  0  0  0  0  0  0  0  0  0  0  0
   22.2217   26.6979   36.4124 N   0  0  0  0  0  0  0  0  0  0  0  0
   20.8054   26.4976   36.5072 C   0  0  0  0  0  0  0  0  0  0  0  0
   20.2758   25.6411   37.3937 C   0  0  0  0  0  0  0  0  0  0  0  0
   21.1397   24.8703   38.3451 C   0  0  0  0  0  0  0  0  0  0  0  0
   21.3616   23.5168   37.8065 N   0  0  0  0  0  0  0  0  0  0  0  0
   20.1728   22.8925   37.1501 C   0  0  0  0  0  0  0  0  0  0  0  0
   18.8346   23.6387   37.4103 C   0  0  0  0  0  0  0  0  0  0  0  0
   18.9690   25.0877   37.1789 N   0  0  0  0  0  0  0  0  0  0  0  0
   17.7880   25.9069   37.0310 C   0  0  0  0  0  0  0  0  0  0  0  0
   16.6991   25.3756   36.6852 O   0  0  0  0  0  0  0  0  0  0  0  0
   17.8090   27.3872   37.2745 C   0  0  0  0  0  0  0  0  0  0  0  0
   22.6024   23.4141   37.0021 C   0  0  0  0  0  0  0  0  0  0  0  0
   22.6577   24.3483   35.7669 C   0  0  0  0  0  0  0  0  0  0  0  0
  1  2  1  0
  2  3  2  0
  2  4  1  0
  4  5  2  0
  5  6  1  0
  6  7  2  0
  7  8  1  0
  8  9  2  0
  9 10  1  0
 10 11  2  0
 11 12  1  0
 12 13  2  0
 13 14  1  0
  1 15  1  0
 15 16  2  0
 16 17  1  0
 17 18  2  0
 18 19  1  0
 19 20  1  0
 20 21  1  0
 21 22  1  0
 22 23  1  0
 23 24  1  0
 24 25  2  0
 24 26  1  0
 20 27  1  0
 27 28  1  0
 13  4  1  0
 28 15  1  0
 12  7  1  0
 23 18  1  0
M  END
>  <AAScore>  (1) 
2258.967390049486

>  <RootName>  (1) 
./4ZLY/04_DeltaGEst/trajectory_00/rank_01/lead_0429

$$$$
