confid_6
     RDKit          3D

 29 32  0  0  0  0  0  0  0  0999 V2000
   24.4800   26.1000   36.1300 N   0  0  0  0  0  0  0  0  0  0  0  0
   25.2500   26.2500   34.9900 C   0  0  0  0  0  0  0  0  0  0  0  0
   24.7400   25.7600   33.9900 O   0  0  0  0  0  0  0  0  0  0  0  0
   26.5900   26.8900   34.9600 C   0  0  0  0  0  0  0  0  0  0  0  0
   27.0600   27.2400   36.1600 N   0  0  0  0  0  0  0  0  0  0  0  0
   28.3000   27.7100   36.2400 N   0  0  0  0  0  0  0  0  0  0  0  0
   29.0500   27.9600   35.1500 C   0  0  0  0  0  0  0  0  0  0  0  0
   30.3400   28.4900   35.2600 C   0  0  0  0  0  0  0  0  0  0  0  0
   31.1100   28.8200   34.1400 C   0  0  0  0  0  0  0  0  0  0  0  0
   30.5200   28.6700   32.8800 C   0  0  0  0  0  0  0  0  0  0  0  0
   29.2900   28.0200   32.7700 C   0  0  0  0  0  0  0  0  0  0  0  0
   28.5200   27.7100   33.8900 C   0  0  0  0  0  0  0  0  0  0  0  0
   27.2700   27.0800   33.7600 C   0  0  0  0  0  0  0  0  0  0  0  0
   26.7500   26.8800   32.4900 N   0  0  0  0  0  0  0  0  0  0  0  0
   23.3630   25.2005   36.2496 C   0  0  0  0  0  0  0  0  0  0  0  0
   22.2594   25.6378   36.7792 N   0  0  0  0  0  0  0  0  0  0  0  0
   21.0911   24.8182   36.9296 C   0  0  0  0  0  0  0  0  0  0  0  0
   21.0455   23.5825   36.4169 C   0  0  0  0  0  0  0  0  0  0  0  0
   19.9350   22.7866   36.6981 O   0  0  0  0  0  0  0  0  0  0  0  0
   18.8840   22.5196   35.7784 C   0  0  0  0  0  0  0  0  0  0  0  0
   18.5086   21.0933   35.8676 N   0  0  0  0  0  0  0  0  0  0  0  0
   19.5025   20.2158   35.2043 C   0  0  0  0  0  0  0  0  0  0  0  0
   20.8276   20.1152   36.0025 C   0  0  0  0  0  0  0  0  0  0  0  0
   22.0726   20.5860   35.2268 C   0  0  0  0  0  0  0  0  0  0  0  0
   22.0225   22.0192   34.6618 C   0  0  0  0  0  0  0  0  0  0  0  0
   22.1855   23.0587   35.6937 N   0  0  0  0  0  0  0  0  0  0  0  0
   23.4340   23.7803   35.8137 C   0  0  0  0  0  0  0  0  0  0  0  0
   24.6125   23.1607   35.6602 C   0  0  0  0  0  0  0  0  0  0  0  0
   17.1846   20.8928   35.2543 C   0  0  0  0  0  0  0  0  0  0  0  0
  1  2  1  0
  2  3  2  0
  2  4  1  0
  4  5  2  0
  5  6  1  0
  6  7  2  0
  7  8  1  0
  8  9  2  0
  9 10  1  0
 10 11  2  0
 11 12  1  0
 12 13  2  0
 13 14  1  0
  1 15  1  0
 15 16  2  0
 16 17  1  0
 17 18  2  0
 18 19  1  0
 19 20  1  0
 20 21  1  0
 21 22  1  0
 22 23  1  0
 23 24  1  0
 24 25  1  0
 25 26  1  0
 26 27  1  0
 27 28  2  3
 21 29  1  0
 13  4  1  0
 27 15  1  0
 12  7  1  0
 26 18  1  0
M  END
>  <AAScore>  (1) 
2543.9643248951243

>  <RootName>  (1) 
./4ZLY/04_DeltaGEst/trajectory_00/rank_01/lead_0356

$$$$
