confid_9
     RDKit          3D

 27 30  0  0  0  0  0  0  0  0999 V2000
   24.2000   26.2400   35.6900 N   0  0  0  0  0  0  0  0  0  0  0  0
   24.8500   26.2800   34.4800 C   0  0  0  0  0  0  0  0  0  0  0  0
   24.3100   25.7400   33.5400 O   0  0  0  0  0  0  0  0  0  0  0  0
   26.1800   26.9700   34.4700 C   0  0  0  0  0  0  0  0  0  0  0  0
   26.6500   27.6000   35.5500 N   0  0  0  0  0  0  0  0  0  0  0  0
   27.7900   28.2700   35.6200 N   0  0  0  0  0  0  0  0  0  0  0  0
   28.5400   28.3000   34.5100 C   0  0  0  0  0  0  0  0  0  0  0  0
   29.7700   28.9400   34.5600 C   0  0  0  0  0  0  0  0  0  0  0  0
   30.7000   28.8900   33.5000 C   0  0  0  0  0  0  0  0  0  0  0  0
   30.3700   28.1400   32.3700 C   0  0  0  0  0  0  0  0  0  0  0  0
   29.1200   27.5200   32.2800 C   0  0  0  0  0  0  0  0  0  0  0  0
   28.2100   27.6100   33.3300 C   0  0  0  0  0  0  0  0  0  0  0  0
   26.9700   26.9700   33.3100 C   0  0  0  0  0  0  0  0  0  0  0  0
   26.5300   26.2400   32.2200 N   0  0  0  0  0  0  0  0  0  0  0  0
   30.1442   29.6553   35.7487 N   0  0  0  0  0  0  0  0  0  0  0  0
   30.7271   28.9052   36.8827 C   0  0  0  0  0  0  0  0  0  0  0  0
   30.4739   29.5990   38.2514 C   0  0  1  0  0  0  0  0  0  0  0  0
   30.7685   31.0731   38.1341 C   0  0  0  0  0  0  0  0  0  0  0  0
   31.0504   31.9503   39.1200 N   0  0  0  0  0  0  0  0  0  0  0  0
   31.2117   31.6537   40.5382 C   0  0  0  0  0  0  0  0  0  0  0  0
   31.0739   33.1800   38.6197 N   0  0  0  0  0  0  0  0  0  0  0  0
   30.8170   33.0907   37.2955 C   0  0  0  0  0  0  0  0  0  0  0  0
   30.7115   34.2661   36.3811 C   0  0  0  0  0  0  0  0  0  0  0  0
   30.6079   31.7646   36.9692 C   0  0  0  0  0  0  0  0  0  0  0  0
   30.2340   31.0947   35.7274 C   0  0  0  0  0  0  0  0  0  0  0  0
   29.9729   31.7529   34.6844 O   0  0  0  0  0  0  0  0  0  0  0  0
   29.0258   29.3886   38.7068 C   0  0  0  0  0  0  0  0  0  0  0  0
  1  2  1  0
  2  3  2  0
  2  4  1  0
  4  5  2  0
  5  6  1  0
  6  7  2  0
  7  8  1  0
  8  9  2  0
  9 10  1  0
 10 11  2  0
 11 12  1  0
 12 13  2  0
 13 14  1  0
  8 15  1  0
 15 16  1  0
 16 17  1  0
 17 18  1  0
 18 19  1  0
 19 20  1  0
 19 21  1  0
 21 22  2  0
 22 23  1  0
 22 24  1  0
 24 25  1  0
 25 26  2  0
 17 27  1  6
 13  4  1  0
 25 15  1  0
 12  7  1  0
 24 18  2  0
M  END
>  <AAScore>  (1) 
-8.139926658382677

>  <RootName>  (1) 
./4ZLY/04_DeltaGEst/trajectory_04/rank_01/lead_0087

$$$$
