confid_2
     RDKit          3D

 31 35  0  0  0  0  0  0  0  0999 V2000
   25.3300   26.2600   34.7600 N   0  0  0  0  0  0  0  0  0  0  0  0
   26.1200   25.9200   33.6900 C   0  0  0  0  0  0  0  0  0  0  0  0
   25.6300   25.1100   32.9400 O   0  0  0  0  0  0  0  0  0  0  0  0
   27.5200   26.3800   33.4600 C   0  0  0  0  0  0  0  0  0  0  0  0
   28.1600   26.6300   34.6100 N   0  0  0  0  0  0  0  0  0  0  0  0
   29.4800   26.8500   34.5700 N   0  0  0  0  0  0  0  0  0  0  0  0
   30.1900   26.7800   33.4400 C   0  0  0  0  0  0  0  0  0  0  0  0
   31.5600   27.0500   33.5000 C   0  0  0  0  0  0  0  0  0  0  0  0
   32.2700   27.2400   32.3100 C   0  0  0  0  0  0  0  0  0  0  0  0
   31.6100   27.2500   31.0800 C   0  0  0  0  0  0  0  0  0  0  0  0
   30.2700   26.8700   31.0600 C   0  0  0  0  0  0  0  0  0  0  0  0
   29.5100   26.6900   32.2300 C   0  0  0  0  0  0  0  0  0  0  0  0
   28.1400   26.4100   32.2000 C   0  0  0  0  0  0  0  0  0  0  0  0
   27.4300   26.1300   31.0500 N   0  0  0  0  0  0  0  0  0  0  0  0
   26.5322   27.1363   30.4759 C   0  0  0  0  0  0  0  0  0  0  0  0
   26.6551   27.1792   28.9358 C   0  0  0  0  0  0  0  0  0  0  0  0
   27.0544   25.8879   28.3179 N   0  0  0  0  0  0  0  0  0  0  0  0
   26.4803   25.7621   26.9613 C   0  0  0  0  0  0  0  0  0  0  0  0
   27.1568   24.6622   26.1793 C   0  0  0  0  0  0  0  0  0  0  0  0
   26.4651   23.4988   25.9769 N   0  0  0  0  0  0  0  0  0  0  0  0
   27.0417   22.4683   25.3104 C   0  0  0  0  0  0  0  0  0  0  0  0
   26.4457   21.1458   25.0047 C   0  0  0  0  0  0  0  0  0  0  0  0
   27.5957   20.4398   24.2395 C   0  0  0  0  0  0  0  0  0  0  0  0
   28.6691   21.3829   24.1844 O   0  0  0  0  0  0  0  0  0  0  0  0
   28.3066   22.5480   24.8255 C   0  0  0  0  0  0  0  0  0  0  0  0
   29.0681   23.6987   24.9905 C   0  0  0  0  0  0  0  0  0  0  0  0
   30.3291   23.7523   24.4862 F   0  0  0  0  0  0  0  0  0  0  0  0
   28.4956   24.7870   25.6916 C   0  0  0  0  0  0  0  0  0  0  0  0
   29.2890   26.0515   25.8995 C   0  0  0  0  0  0  0  0  0  0  0  0
   26.7095   24.7285   29.1637 C   0  0  0  0  0  0  0  0  0  0  0  0
   27.5311   24.7964   30.4480 C   0  0  0  0  0  0  0  0  0  0  0  0
  1  2  1  0
  2  3  2  0
  2  4  1  0
  4  5  2  0
  5  6  1  0
  6  7  2  0
  7  8  1  0
  8  9  2  0
  9 10  1  0
 10 11  2  0
 11 12  1  0
 12 13  2  0
 13 14  1  0
 14 15  1  0
 15 16  1  0
 16 17  1  0
 17 18  1  0
 18 19  1  0
 19 20  2  0
 20 21  1  0
 21 22  1  0
 22 23  1  0
 23 24  1  0
 24 25  1  0
 25 26  1  0
 26 27  1  0
 26 28  2  0
 28 29  1  0
 17 30  1  0
 30 31  1  0
 13  4  1  0
 31 14  1  0
 12  7  1  0
 28 19  1  0
 25 21  2  0
M  END
>  <AAScore>  (1) 
-1.9775697583371312

>  <RootName>  (1) 
./4ZLY/04_DeltaGEst/trajectory_03/rank_01/lead_0138

$$$$
