confid_10
     RDKit          3D

 28 30  0  0  0  0  0  0  0  0999 V2000
   24.5700   26.8800   35.5900 N   0  0  0  0  0  0  0  0  0  0  0  0
   25.5000   26.4000   34.6900 C   0  0  0  0  0  0  0  0  0  0  0  0
   25.1700   25.5200   33.9100 O   0  0  0  0  0  0  0  0  0  0  0  0
   26.8400   27.0200   34.7400 C   0  0  0  0  0  0  0  0  0  0  0  0
   27.3800   27.2800   35.9400 N   0  0  0  0  0  0  0  0  0  0  0  0
   28.6200   27.7400   36.0300 N   0  0  0  0  0  0  0  0  0  0  0  0
   29.3800   28.0000   34.9600 C   0  0  0  0  0  0  0  0  0  0  0  0
   30.6700   28.5000   35.1300 C   0  0  0  0  0  0  0  0  0  0  0  0
   31.5400   28.6100   34.0300 C   0  0  0  0  0  0  0  0  0  0  0  0
   31.0900   28.2200   32.7700 C   0  0  0  0  0  0  0  0  0  0  0  0
   29.8000   27.7000   32.6000 C   0  0  0  0  0  0  0  0  0  0  0  0
   28.9600   27.5500   33.7100 C   0  0  0  0  0  0  0  0  0  0  0  0
   27.6600   27.0300   33.5900 C   0  0  0  0  0  0  0  0  0  0  0  0
   27.1600   26.7400   32.3400 N   0  0  0  0  0  0  0  0  0  0  0  0
   33.1844   29.2209   34.2970 S   0  0  0  0  0  6  0  0  0  0  0  0
   34.0432   28.0747   34.7522 O   0  0  0  0  0  0  0  0  0  0  0  0
   33.1288   30.2382   35.4020 O   0  0  0  0  0  0  0  0  0  0  0  0
   33.9456   29.9912   32.9203 N   0  0  0  0  0  0  0  0  0  0  0  0
   33.0902   30.9815   32.2688 C   0  0  0  0  0  0  0  0  0  0  0  0
   33.5200   31.0442   30.7942 C   0  0  1  0  0  0  0  0  0  0  0  0
   33.9538   29.5988   30.5433 C   0  0  0  0  0  0  0  0  0  0  0  0
   34.3905   29.0469   31.8952 C   0  0  0  0  0  0  0  0  0  0  0  0
   32.4336   31.5340   29.8743 N   0  0  0  0  0  0  0  0  0  0  0  0
   31.9342   32.8524   30.3521 C   0  0  0  0  0  0  0  0  0  0  0  0
   32.7740   31.5518   28.3902 C   0  0  0  0  0  0  0  0  0  0  0  0
   32.6638   30.1227   27.7947 C   0  0  0  0  0  0  0  0  0  0  0  0
   31.7668   32.4112   27.5660 C   0  0  0  0  0  0  0  0  0  0  0  0
   34.1890   32.1175   28.1077 C   0  0  0  0  0  0  0  0  0  0  0  0
  1  2  1  0
  2  3  2  0
  2  4  1  0
  4  5  2  0
  5  6  1  0
  6  7  2  0
  7  8  1  0
  8  9  2  0
  9 10  1  0
 10 11  2  0
 11 12  1  0
 12 13  2  0
 13 14  1  0
  9 15  1  0
 15 16  2  0
 15 17  2  0
 15 18  1  0
 18 19  1  0
 19 20  1  0
 20 21  1  0
 21 22  1  0
 20 23  1  6
 23 24  1  0
 23 25  1  0
 25 26  1  0
 25 27  1  0
 25 28  1  0
 13  4  1  0
 22 18  1  0
 12  7  1  0
M  END
>  <AAScore>  (1) 
-0.9493107714689348

>  <RootName>  (1) 
./4ZLY/04_DeltaGEst/trajectory_05/rank_01/lead_0207

$$$$
