confid_12
     RDKit          3D

 27 30  0  0  0  0  0  0  0  0999 V2000
   24.2000   26.2400   35.6900 N   0  0  0  0  0  0  0  0  0  0  0  0
   24.8500   26.2800   34.4800 C   0  0  0  0  0  0  0  0  0  0  0  0
   24.3100   25.7400   33.5400 O   0  0  0  0  0  0  0  0  0  0  0  0
   26.1800   26.9700   34.4700 C   0  0  0  0  0  0  0  0  0  0  0  0
   26.6500   27.6000   35.5500 N   0  0  0  0  0  0  0  0  0  0  0  0
   27.7900   28.2700   35.6200 N   0  0  0  0  0  0  0  0  0  0  0  0
   28.5400   28.3000   34.5100 C   0  0  0  0  0  0  0  0  0  0  0  0
   29.7700   28.9400   34.5600 C   0  0  0  0  0  0  0  0  0  0  0  0
   30.7000   28.8900   33.5000 C   0  0  0  0  0  0  0  0  0  0  0  0
   30.3700   28.1400   32.3700 C   0  0  0  0  0  0  0  0  0  0  0  0
   29.1200   27.5200   32.2800 C   0  0  0  0  0  0  0  0  0  0  0  0
   28.2100   27.6100   33.3300 C   0  0  0  0  0  0  0  0  0  0  0  0
   26.9700   26.9700   33.3100 C   0  0  0  0  0  0  0  0  0  0  0  0
   26.5300   26.2400   32.2200 N   0  0  0  0  0  0  0  0  0  0  0  0
   22.8386   25.8130   35.8366 C   0  0  0  0  0  0  0  0  0  0  0  0
   22.4752   24.8413   36.7033 N   0  0  0  0  0  0  0  0  0  0  0  0
   21.1327   24.7722   36.5790 C   0  0  0  0  0  0  0  0  0  0  0  0
   20.7132   25.7280   35.6769 C   0  0  0  0  0  0  0  0  0  0  0  0
   19.3174   26.0068   35.2002 C   0  0  2  0  0  0  0  0  0  0  0  0
   19.2800   27.3680   34.4558 C   0  0  0  0  0  0  0  0  0  0  0  0
   20.4541   27.5847   33.5756 N   0  0  0  0  0  0  0  0  0  0  0  0
   20.4854   26.6485   32.4390 C   0  0  0  0  0  0  0  0  0  0  0  0
   21.7215   27.5545   34.3404 C   0  0  0  0  0  0  0  0  0  0  0  0
   21.7878   26.3602   35.1865 N   0  0  0  0  0  0  0  0  0  0  0  0
   18.3433   25.9996   36.3591 C   0  0  0  0  0  0  0  0  0  0  0  0
   18.4407   26.8434   37.2390 O   0  0  0  0  0  0  0  0  0  0  0  0
   17.2554   24.9712   36.4590 C   0  0  0  0  0  0  0  0  0  0  0  0
  1  2  1  0
  2  3  2  0
  2  4  1  0
  4  5  2  0
  5  6  1  0
  6  7  2  0
  7  8  1  0
  8  9  2  0
  9 10  1  0
 10 11  2  0
 11 12  1  0
 12 13  2  0
 13 14  1  0
  1 15  1  0
 15 16  2  0
 16 17  1  0
 17 18  2  0
 18 19  1  0
 19 20  1  0
 20 21  1  0
 21 22  1  0
 21 23  1  0
 23 24  1  0
 19 25  1  1
 25 26  2  0
 25 27  1  0
 13  4  1  0
 24 15  1  0
 12  7  1  0
 24 18  1  0
M  END
>  <AAScore>  (1) 
1520.2077074908566

>  <RootName>  (1) 
./4ZLY/04_DeltaGEst/trajectory_04/rank_00/lead_0440

$$$$
