confid_12
     RDKit          3D

 26 28  0  0  0  0  0  0  0  0999 V2000
   24.5500   26.3900   36.2500 N   0  0  0  0  0  0  0  0  0  0  0  0
   25.6000   26.1300   35.4000 C   0  0  0  0  0  0  0  0  0  0  0  0
   25.4300   25.4300   34.4200 O   0  0  0  0  0  0  0  0  0  0  0  0
   26.9800   26.6300   35.7100 C   0  0  0  0  0  0  0  0  0  0  0  0
   27.3200   26.8200   36.9800 N   0  0  0  0  0  0  0  0  0  0  0  0
   28.4700   27.4000   37.3100 N   0  0  0  0  0  0  0  0  0  0  0  0
   29.4000   27.6300   36.3700 C   0  0  0  0  0  0  0  0  0  0  0  0
   30.6600   28.0500   36.8000 C   0  0  0  0  0  0  0  0  0  0  0  0
   31.5700   28.3600   35.7800 C   0  0  0  0  0  0  0  0  0  0  0  0
   31.3700   28.1000   34.4300 C   0  0  0  0  0  0  0  0  0  0  0  0
   30.1200   27.5900   34.0500 C   0  0  0  0  0  0  0  0  0  0  0  0
   29.1500   27.3400   35.0300 C   0  0  0  0  0  0  0  0  0  0  0  0
   27.8800   26.8900   34.6600 C   0  0  0  0  0  0  0  0  0  0  0  0
   27.4800   26.6100   33.3700 N   0  0  0  0  0  0  0  0  0  0  0  0
   23.1990   25.9336   36.0420 C   0  0  0  0  0  0  0  0  0  0  0  0
   22.7998   25.2643   34.9373 N   0  0  0  0  0  0  0  0  0  0  0  0
   21.4819   25.0661   35.1412 C   0  0  0  0  0  0  0  0  0  0  0  0
   20.6426   24.4009   34.2445 O   0  0  0  0  0  0  0  0  0  0  0  0
   21.1172   23.8641   33.0165 C   0  0  0  0  0  0  0  0  0  0  0  0
   21.0945   25.6137   36.3484 C   0  0  0  0  0  0  0  0  0  0  0  0
   22.1926   26.1520   36.9220 N   0  0  0  0  0  0  0  0  0  0  0  0
   22.2845   26.8699   38.1941 C   0  0  0  0  0  0  0  0  0  0  0  0
   19.7105   25.6117   36.9413 C   0  0  0  0  0  0  0  0  0  0  0  0
   19.7111   24.8757   38.1115 F   0  0  0  0  0  0  0  0  0  0  0  0
   18.7954   25.0537   36.0672 F   0  0  0  0  0  0  0  0  0  0  0  0
   19.3215   26.9096   37.2160 F   0  0  0  0  0  0  0  0  0  0  0  0
  1  2  1  0
  2  3  2  0
  2  4  1  0
  4  5  2  0
  5  6  1  0
  6  7  2  0
  7  8  1  0
  8  9  2  0
  9 10  1  0
 10 11  2  0
 11 12  1  0
 12 13  2  0
 13 14  1  0
  1 15  1  0
 15 16  2  0
 16 17  1  0
 17 18  1  0
 18 19  1  0
 17 20  2  0
 20 21  1  0
 21 22  1  0
 20 23  1  0
 23 24  1  0
 23 25  1  0
 23 26  1  0
 13  4  1  0
 21 15  1  0
 12  7  1  0
M  END
>  <AAScore>  (1) 
1557.3341643248823

>  <RootName>  (1) 
./4ZLY/04_DeltaGEst/trajectory_01/rank_00/lead_0156

$$$$
