confid_0
     RDKit          3D

 27 30  0  0  0  0  0  0  0  0999 V2000
   25.3300   26.2600   34.7600 N   0  0  0  0  0  0  0  0  0  0  0  0
   26.1200   25.9200   33.6900 C   0  0  0  0  0  0  0  0  0  0  0  0
   25.6300   25.1100   32.9400 O   0  0  0  0  0  0  0  0  0  0  0  0
   27.5200   26.3800   33.4600 C   0  0  0  0  0  0  0  0  0  0  0  0
   28.1600   26.6300   34.6100 N   0  0  0  0  0  0  0  0  0  0  0  0
   29.4800   26.8500   34.5700 N   0  0  0  0  0  0  0  0  0  0  0  0
   30.1900   26.7800   33.4400 C   0  0  0  0  0  0  0  0  0  0  0  0
   31.5600   27.0500   33.5000 C   0  0  0  0  0  0  0  0  0  0  0  0
   32.2700   27.2400   32.3100 C   0  0  0  0  0  0  0  0  0  0  0  0
   31.6100   27.2500   31.0800 C   0  0  0  0  0  0  0  0  0  0  0  0
   30.2700   26.8700   31.0600 C   0  0  0  0  0  0  0  0  0  0  0  0
   29.5100   26.6900   32.2300 C   0  0  0  0  0  0  0  0  0  0  0  0
   28.1400   26.4100   32.2000 C   0  0  0  0  0  0  0  0  0  0  0  0
   27.4300   26.1300   31.0500 N   0  0  0  0  0  0  0  0  0  0  0  0
   24.1875   25.5053   35.2151 C   0  0  0  0  0  0  0  0  0  0  0  0
   24.1653   24.1528   35.0251 N   0  0  0  0  0  0  0  0  0  0  0  0
   23.1379   23.4060   35.4880 C   0  0  0  0  0  0  0  0  0  0  0  0
   22.9814   21.9243   35.3292 C   0  0  0  0  0  0  0  0  0  0  0  0
   21.7145   21.6586   36.0110 N   0  0  0  0  0  0  0  0  0  0  0  0
   21.0796   20.3534   36.1378 C   0  0  0  0  0  0  0  0  0  0  0  0
   21.1958   22.8841   36.5178 C   0  0  0  0  0  0  0  0  0  0  0  0
   20.0928   22.9844   37.1174 O   0  0  0  0  0  0  0  0  0  0  0  0
   22.1035   23.9701   36.1942 C   0  0  0  0  0  0  0  0  0  0  0  0
   22.0745   25.3457   36.4665 C   0  0  0  0  0  0  0  0  0  0  0  0
   20.9557   25.9430   37.2835 C   0  0  0  0  0  0  0  0  0  0  0  0
   23.1128   26.1455   35.9051 C   0  0  0  0  0  0  0  0  0  0  0  0
   23.0897   27.6506   36.0417 C   0  0  0  0  0  0  0  0  0  0  0  0
  1  2  1  0
  2  3  2  0
  2  4  1  0
  4  5  2  0
  5  6  1  0
  6  7  2  0
  7  8  1  0
  8  9  2  0
  9 10  1  0
 10 11  2  0
 11 12  1  0
 12 13  2  0
 13 14  1  0
  1 15  1  0
 15 16  2  0
 16 17  1  0
 17 18  1  0
 18 19  1  0
 19 20  1  0
 19 21  1  0
 21 22  2  0
 21 23  1  0
 23 24  1  0
 24 25  1  0
 24 26  2  0
 26 27  1  0
 13  4  1  0
 26 15  1  0
 12  7  1  0
 23 17  2  0
M  END
>  <AAScore>  (1) 
3809.6859431055286

>  <RootName>  (1) 
./4ZLY/04_DeltaGEst/trajectory_03/rank_00/lead_0116

$$$$
