confid_5
     RDKit          3D

 27 30  0  0  0  0  0  0  0  0999 V2000
   24.6900   26.1200   35.5300 N   0  0  0  0  0  0  0  0  0  0  0  0
   25.6600   25.6700   34.6600 C   0  0  0  0  0  0  0  0  0  0  0  0
   25.2400   25.0100   33.7200 O   0  0  0  0  0  0  0  0  0  0  0  0
   27.0300   26.2200   34.8800 C   0  0  0  0  0  0  0  0  0  0  0  0
   27.3500   26.7300   36.0700 N   0  0  0  0  0  0  0  0  0  0  0  0
   28.5700   27.1800   36.3300 N   0  0  0  0  0  0  0  0  0  0  0  0
   29.5300   27.1100   35.3900 C   0  0  0  0  0  0  0  0  0  0  0  0
   30.8300   27.5700   35.6500 C   0  0  0  0  0  0  0  0  0  0  0  0
   31.8500   27.5400   34.6900 C   0  0  0  0  0  0  0  0  0  0  0  0
   31.5100   27.1200   33.4000 C   0  0  0  0  0  0  0  0  0  0  0  0
   30.2200   26.6300   33.1100 C   0  0  0  0  0  0  0  0  0  0  0  0
   29.2400   26.6600   34.1000 C   0  0  0  0  0  0  0  0  0  0  0  0
   27.9300   26.2600   33.8100 C   0  0  0  0  0  0  0  0  0  0  0  0
   27.5200   25.7100   32.6100 N   0  0  0  0  0  0  0  0  0  0  0  0
   31.1803   28.0514   37.0064 C   0  0  0  0  0  0  0  0  0  0  0  0
   31.0509   27.2941   38.1578 C   0  0  0  0  0  0  0  0  0  0  0  0
   31.5577   28.0688   39.1798 C   0  0  0  0  0  0  0  0  0  0  0  0
   31.6531   27.6963   40.6253 C   0  0  0  0  0  0  0  0  0  0  0  0
   30.7298   28.5790   41.4759 C   0  0  0  0  0  0  0  0  0  0  0  0
   30.8909   30.0208   41.2175 N   0  0  0  0  0  0  0  0  0  0  0  0
   32.1526   30.5662   40.7895 C   0  0  0  0  0  0  0  0  0  0  0  0
   32.8123   31.2950   41.5784 O   0  0  0  0  0  0  0  0  0  0  0  0
   32.6612   30.3736   39.3834 C   0  0  0  0  0  0  0  0  0  0  0  0
   31.9501   29.2752   38.6305 C   0  0  0  0  0  0  0  0  0  0  0  0
   31.7248   29.2600   37.2955 N   0  0  0  0  0  0  0  0  0  0  0  0
   32.0258   30.3420   36.3552 C   0  0  0  0  0  0  0  0  0  0  0  0
   29.9304   30.9303   41.8409 C   0  0  0  0  0  0  0  0  0  0  0  0
  1  2  1  0
  2  3  2  0
  2  4  1  0
  4  5  2  0
  5  6  1  0
  6  7  2  0
  7  8  1  0
  8  9  2  0
  9 10  1  0
 10 11  2  0
 11 12  1  0
 12 13  2  0
 13 14  1  0
  8 15  1  0
 15 16  2  0
 16 17  1  0
 17 18  1  0
 18 19  1  0
 19 20  1  0
 20 21  1  0
 21 22  2  0
 21 23  1  0
 23 24  1  0
 24 25  1  0
 25 26  1  0
 20 27  1  0
 13  4  1  0
 25 15  1  0
 12  7  1  0
 24 17  2  0
M  END
>  <AAScore>  (1) 
1.064385509907837

>  <RootName>  (1) 
./4ZLY/04_DeltaGEst/trajectory_02/rank_01/lead_0398

$$$$
