confid_0
     RDKit          3D

 26 29  0  0  0  0  0  0  0  0999 V2000
   24.5500   26.3900   36.2500 N   0  0  0  0  0  0  0  0  0  0  0  0
   25.6000   26.1300   35.4000 C   0  0  0  0  0  0  0  0  0  0  0  0
   25.4300   25.4300   34.4200 O   0  0  0  0  0  0  0  0  0  0  0  0
   26.9800   26.6300   35.7100 C   0  0  0  0  0  0  0  0  0  0  0  0
   27.3200   26.8200   36.9800 N   0  0  0  0  0  0  0  0  0  0  0  0
   28.4700   27.4000   37.3100 N   0  0  0  0  0  0  0  0  0  0  0  0
   29.4000   27.6300   36.3700 C   0  0  0  0  0  0  0  0  0  0  0  0
   30.6600   28.0500   36.8000 C   0  0  0  0  0  0  0  0  0  0  0  0
   31.5700   28.3600   35.7800 C   0  0  0  0  0  0  0  0  0  0  0  0
   31.3700   28.1000   34.4300 C   0  0  0  0  0  0  0  0  0  0  0  0
   30.1200   27.5900   34.0500 C   0  0  0  0  0  0  0  0  0  0  0  0
   29.1500   27.3400   35.0300 C   0  0  0  0  0  0  0  0  0  0  0  0
   27.8800   26.8900   34.6600 C   0  0  0  0  0  0  0  0  0  0  0  0
   27.4800   26.6100   33.3700 N   0  0  0  0  0  0  0  0  0  0  0  0
   30.9910   28.2840   38.2243 C   0  0  0  0  0  0  0  0  0  0  0  0
   31.0962   27.1731   39.0848 C   0  0  0  0  0  0  0  0  0  0  0  0
   31.4324   27.4003   40.4124 C   0  0  0  0  0  0  0  0  0  0  0  0
   31.5937   26.4645   41.4097 O   0  0  0  0  0  0  0  0  0  0  0  0
   31.9459   27.1127   42.6346 C   0  0  0  0  0  0  0  0  0  0  0  0
   31.9996   28.6296   42.3155 C   0  0  0  0  0  0  0  0  0  0  0  0
   31.6524   28.6564   40.8746 C   0  0  0  0  0  0  0  0  0  0  0  0
   31.5456   29.7424   40.0700 N   0  0  0  0  0  0  0  0  0  0  0  0
   31.2055   29.5934   38.7531 C   0  0  0  0  0  0  0  0  0  0  0  0
   31.0969   30.8271   37.8997 C   0  0  0  0  0  0  0  0  0  0  0  0
   32.3268   31.1074   37.3350 F   0  0  0  0  0  0  0  0  0  0  0  0
   30.6993   31.9048   38.6709 F   0  0  0  0  0  0  0  0  0  0  0  0
  1  2  1  0
  2  3  2  0
  2  4  1  0
  4  5  2  0
  5  6  1  0
  6  7  2  0
  7  8  1  0
  8  9  2  0
  9 10  1  0
 10 11  2  0
 11 12  1  0
 12 13  2  0
 13 14  1  0
  8 15  1  0
 15 16  2  0
 16 17  1  0
 17 18  1  0
 18 19  1  0
 19 20  1  0
 20 21  1  0
 21 22  1  0
 22 23  2  0
 23 24  1  0
 24 25  1  0
 24 26  1  0
 13  4  1  0
 23 15  1  0
 12  7  1  0
 21 17  2  0
M  END
>  <AAScore>  (1) 
17.739535067647353

>  <RootName>  (1) 
./4ZLY/04_DeltaGEst/trajectory_01/rank_01/lead_0467

$$$$
