confid_15
     RDKit          3D

 30 33  0  0  0  0  0  0  0  0999 V2000
   24.5500   26.3900   36.2500 N   0  0  0  0  0  0  0  0  0  0  0  0
   25.6000   26.1300   35.4000 C   0  0  0  0  0  0  0  0  0  0  0  0
   25.4300   25.4300   34.4200 O   0  0  0  0  0  0  0  0  0  0  0  0
   26.9800   26.6300   35.7100 C   0  0  0  0  0  0  0  0  0  0  0  0
   27.3200   26.8200   36.9800 N   0  0  0  0  0  0  0  0  0  0  0  0
   28.4700   27.4000   37.3100 N   0  0  0  0  0  0  0  0  0  0  0  0
   29.4000   27.6300   36.3700 C   0  0  0  0  0  0  0  0  0  0  0  0
   30.6600   28.0500   36.8000 C   0  0  0  0  0  0  0  0  0  0  0  0
   31.5700   28.3600   35.7800 C   0  0  0  0  0  0  0  0  0  0  0  0
   31.3700   28.1000   34.4300 C   0  0  0  0  0  0  0  0  0  0  0  0
   30.1200   27.5900   34.0500 C   0  0  0  0  0  0  0  0  0  0  0  0
   29.1500   27.3400   35.0300 C   0  0  0  0  0  0  0  0  0  0  0  0
   27.8800   26.8900   34.6600 C   0  0  0  0  0  0  0  0  0  0  0  0
   27.4800   26.6100   33.3700 N   0  0  0  0  0  0  0  0  0  0  0  0
   23.1493   26.0069   36.0027 C   0  0  0  0  0  0  0  0  0  0  0  0
   22.9781   24.4681   35.8973 C   0  0  0  0  0  0  0  0  0  0  0  0
   22.5318   23.9974   34.5046 C   0  0  0  0  0  0  0  0  0  0  0  0
   21.3411   24.7420   34.0476 N   0  0  0  0  0  0  0  0  0  0  0  0
   20.3357   24.1549   33.1776 C   0  0  0  0  0  0  0  0  0  0  0  0
   19.2776   24.8048   32.9499 O   0  0  0  0  0  0  0  0  0  0  0  0
   20.5051   22.7832   32.5249 C   0  0  0  0  0  0  0  0  0  0  0  0
   21.7463   22.6556   31.7110 N   0  0  0  0  0  0  0  0  0  0  0  0
   21.9665   23.5920   30.5723 C   0  0  0  0  0  0  0  0  0  0  0  0
   20.7181   23.9324   29.7430 C   0  0  0  0  0  0  0  0  0  0  0  0
   22.6955   24.8661   31.0113 C   0  0  0  0  0  0  0  0  0  0  0  0
   20.3874   21.6583   33.5745 C   0  0  0  0  0  0  0  0  0  0  0  0
   19.1489   21.1090   32.8892 C   0  0  0  0  0  0  0  0  0  0  0  0
   19.2506   22.1927   31.8314 C   0  0  0  0  0  0  0  0  0  0  0  0
   21.2288   26.1791   34.3642 C   0  0  0  0  0  0  0  0  0  0  0  0
   22.5757   26.7701   34.7940 C   0  0  0  0  0  0  0  0  0  0  0  0
  1  2  1  0
  2  3  2  0
  2  4  1  0
  4  5  2  0
  5  6  1  0
  6  7  2  0
  7  8  1  0
  8  9  2  0
  9 10  1  0
 10 11  2  0
 11 12  1  0
 12 13  2  0
 13 14  1  0
  1 15  1  0
 15 16  1  0
 16 17  1  0
 17 18  1  0
 18 19  1  0
 19 20  2  0
 19 21  1  0
 21 22  1  0
 22 23  1  0
 23 24  1  0
 23 25  1  0
 21 26  1  0
 26 27  1  0
 27 28  1  0
 18 29  1  0
 29 30  1  0
 13  4  1  0
 30 15  1  0
 12  7  1  0
 28 21  1  0
M  END
>  <AAScore>  (1) 
1172.5967957723633

>  <RootName>  (1) 
./4ZLY/04_DeltaGEst/trajectory_01/rank_00/lead_0175

$$$$
