confid_1
     RDKit          3D

 29 33  0  0  0  0  0  0  0  0999 V2000
   25.3300   26.2600   34.7600 N   0  0  0  0  0  0  0  0  0  0  0  0
   26.1200   25.9200   33.6900 C   0  0  0  0  0  0  0  0  0  0  0  0
   25.6300   25.1100   32.9400 O   0  0  0  0  0  0  0  0  0  0  0  0
   27.5200   26.3800   33.4600 C   0  0  0  0  0  0  0  0  0  0  0  0
   28.1600   26.6300   34.6100 N   0  0  0  0  0  0  0  0  0  0  0  0
   29.4800   26.8500   34.5700 N   0  0  0  0  0  0  0  0  0  0  0  0
   30.1900   26.7800   33.4400 C   0  0  0  0  0  0  0  0  0  0  0  0
   31.5600   27.0500   33.5000 C   0  0  0  0  0  0  0  0  0  0  0  0
   32.2700   27.2400   32.3100 C   0  0  0  0  0  0  0  0  0  0  0  0
   31.6100   27.2500   31.0800 C   0  0  0  0  0  0  0  0  0  0  0  0
   30.2700   26.8700   31.0600 C   0  0  0  0  0  0  0  0  0  0  0  0
   29.5100   26.6900   32.2300 C   0  0  0  0  0  0  0  0  0  0  0  0
   28.1400   26.4100   32.2000 C   0  0  0  0  0  0  0  0  0  0  0  0
   27.4300   26.1300   31.0500 N   0  0  0  0  0  0  0  0  0  0  0  0
   24.1824   25.5173   35.2244 C   0  0  0  0  0  0  0  0  0  0  0  0
   24.1527   24.2288   34.9973 N   0  0  0  0  0  0  0  0  0  0  0  0
   23.2563   23.1326   35.2516 C   0  0  0  0  0  0  0  0  0  0  0  0
   21.9596   23.2479   35.5035 C   0  0  0  0  0  0  0  0  0  0  0  0
   20.7395   22.4016   35.2720 C   0  0  0  0  0  0  0  0  0  0  0  0
   19.8302   23.4194   35.5417 O   0  0  0  0  0  0  0  0  0  0  0  0
   20.9048   24.2301   35.8905 C   0  0  2  0  0  0  0  0  0  0  0  0
   21.0069   25.5160   35.0799 C   0  0  0  0  0  0  0  0  0  0  0  0
   21.9036   26.4254   35.8542 C   0  0  0  0  0  0  0  0  0  0  0  0
   23.2136   26.2689   36.0620 C   0  0  0  0  0  0  0  0  0  0  0  0
   23.6752   27.2070   37.0272 N   0  0  0  0  0  0  0  0  0  0  0  0
   22.6538   27.8837   37.4327 C   0  0  0  0  0  0  0  0  0  0  0  0
   22.7437   28.9057   38.4300 N   0  0  0  0  0  0  0  0  0  0  0  0
   24.0057   29.2408   39.0779 C   0  0  0  0  0  0  0  0  0  0  0  0
   21.3847   27.4878   36.7668 C   0  0  0  0  0  0  0  0  0  0  0  0
  1  2  1  0
  2  3  2  0
  2  4  1  0
  4  5  2  0
  5  6  1  0
  6  7  2  0
  7  8  1  0
  8  9  2  0
  9 10  1  0
 10 11  2  0
 11 12  1  0
 12 13  2  0
 13 14  1  0
  1 15  1  0
 15 16  2  0
 16 17  1  0
 17 18  2  0
 18 19  1  0
 19 20  1  0
 20 21  1  0
 21 22  1  6
 22 23  1  0
 23 24  2  0
 24 25  1  0
 25 26  2  0
 26 27  1  0
 27 28  1  0
 26 29  1  0
 13  4  1  0
 24 15  1  0
 12  7  1  0
 21 18  1  0
 29 23  1  0
M  END
>  <AAScore>  (1) 
5779.171474110885

>  <RootName>  (1) 
./4ZLY/04_DeltaGEst/trajectory_03/rank_00/lead_0043

$$$$
