confid_4
     RDKit          3D

 28 32  0  0  0  0  0  0  0  0999 V2000
   25.3300   26.2600   34.7600 N   0  0  0  0  0  0  0  0  0  0  0  0
   26.1200   25.9200   33.6900 C   0  0  0  0  0  0  0  0  0  0  0  0
   25.6300   25.1100   32.9400 O   0  0  0  0  0  0  0  0  0  0  0  0
   27.5200   26.3800   33.4600 C   0  0  0  0  0  0  0  0  0  0  0  0
   28.1600   26.6300   34.6100 N   0  0  0  0  0  0  0  0  0  0  0  0
   29.4800   26.8500   34.5700 N   0  0  0  0  0  0  0  0  0  0  0  0
   30.1900   26.7800   33.4400 C   0  0  0  0  0  0  0  0  0  0  0  0
   31.5600   27.0500   33.5000 C   0  0  0  0  0  0  0  0  0  0  0  0
   32.2700   27.2400   32.3100 C   0  0  0  0  0  0  0  0  0  0  0  0
   31.6100   27.2500   31.0800 C   0  0  0  0  0  0  0  0  0  0  0  0
   30.2700   26.8700   31.0600 C   0  0  0  0  0  0  0  0  0  0  0  0
   29.5100   26.6900   32.2300 C   0  0  0  0  0  0  0  0  0  0  0  0
   28.1400   26.4100   32.2000 C   0  0  0  0  0  0  0  0  0  0  0  0
   27.4300   26.1300   31.0500 N   0  0  0  0  0  0  0  0  0  0  0  0
   27.8114   25.0034   30.1794 C   0  0  0  0  0  0  0  0  0  0  0  0
   26.6111   24.0440   29.9327 C   0  0  1  0  0  0  0  0  0  0  0  0
   25.3523   24.6833   30.1284 O   0  0  0  0  0  0  0  0  0  0  0  0
   25.0861   25.7542   29.2261 C   0  0  0  0  0  0  0  0  0  0  0  0
   26.0574   26.7862   29.2394 O   0  0  0  0  0  0  0  0  0  0  0  0
   26.4465   27.1052   30.5598 C   0  0  0  0  0  0  0  0  0  0  0  0
   26.7032   23.3211   28.5364 C   0  0  0  0  0  0  0  0  0  0  0  0
   27.0567   21.9195   28.8871 C   0  0  0  0  0  0  0  0  0  0  0  0
   27.3468   20.8560   28.0301 C   0  0  0  0  0  0  0  0  0  0  0  0
   27.6245   19.5993   28.5946 C   0  0  0  0  0  0  0  0  0  0  0  0
   27.6006   19.4298   29.9935 C   0  0  0  0  0  0  0  0  0  0  0  0
   27.2974   20.5160   30.8312 C   0  0  0  0  0  0  0  0  0  0  0  0
   27.0246   21.7493   30.2387 C   0  0  0  0  0  0  0  0  0  0  0  0
   26.7146   22.9513   30.9076 N   0  0  0  0  0  0  0  0  0  0  0  0
  1  2  1  0
  2  3  2  0
  2  4  1  0
  4  5  2  0
  5  6  1  0
  6  7  2  0
  7  8  1  0
  8  9  2  0
  9 10  1  0
 10 11  2  0
 11 12  1  0
 12 13  2  0
 13 14  1  0
 14 15  1  0
 16 15  1  1
 16 17  1  0
 17 18  1  0
 18 19  1  0
 19 20  1  0
 16 21  1  0
 21 22  1  0
 22 23  2  0
 23 24  1  0
 24 25  2  0
 25 26  1  0
 26 27  2  0
 27 28  1  0
 13  4  1  0
 20 14  1  0
 27 22  1  0
 12  7  1  0
 28 16  1  0
M  END
>  <AAScore>  (1) 
99.8654460893726

>  <RootName>  (1) 
./4ZLY/04_DeltaGEst/trajectory_03/rank_01/lead_0243

$$$$
