confid_14
     RDKit          3D

 28 31  0  0  0  0  0  0  0  0999 V2000
   24.5500   26.3900   36.2500 N   0  0  0  0  0  0  0  0  0  0  0  0
   25.6000   26.1300   35.4000 C   0  0  0  0  0  0  0  0  0  0  0  0
   25.4300   25.4300   34.4200 O   0  0  0  0  0  0  0  0  0  0  0  0
   26.9800   26.6300   35.7100 C   0  0  0  0  0  0  0  0  0  0  0  0
   27.3200   26.8200   36.9800 N   0  0  0  0  0  0  0  0  0  0  0  0
   28.4700   27.4000   37.3100 N   0  0  0  0  0  0  0  0  0  0  0  0
   29.4000   27.6300   36.3700 C   0  0  0  0  0  0  0  0  0  0  0  0
   30.6600   28.0500   36.8000 C   0  0  0  0  0  0  0  0  0  0  0  0
   31.5700   28.3600   35.7800 C   0  0  0  0  0  0  0  0  0  0  0  0
   31.3700   28.1000   34.4300 C   0  0  0  0  0  0  0  0  0  0  0  0
   30.1200   27.5900   34.0500 C   0  0  0  0  0  0  0  0  0  0  0  0
   29.1500   27.3400   35.0300 C   0  0  0  0  0  0  0  0  0  0  0  0
   27.8800   26.8900   34.6600 C   0  0  0  0  0  0  0  0  0  0  0  0
   27.4800   26.6100   33.3700 N   0  0  0  0  0  0  0  0  0  0  0  0
   31.0421   28.2129   38.2095 N   0  0  0  0  0  0  0  0  0  0  0  0
   32.4570   28.1353   38.6204 C   0  0  0  0  0  0  0  0  0  0  0  0
   32.9718   29.5178   39.0803 C   0  0  0  0  0  0  0  0  0  0  0  0
   32.4562   30.6557   38.2091 C   0  0  0  0  0  0  0  0  0  0  0  0
   33.3458   31.3697   37.3734 C   0  0  0  0  0  0  0  0  0  0  0  0
   34.7006   31.0183   37.3226 O   0  0  0  0  0  0  0  0  0  0  0  0
   35.6635   31.6791   36.4990 C   0  0  0  0  0  0  0  0  0  0  0  0
   35.4744   31.3139   35.0249 C   0  0  0  0  0  0  0  0  0  0  0  0
   32.8835   32.3979   36.6091 N   0  0  0  0  0  0  0  0  0  0  0  0
   31.5783   32.7583   36.5903 C   0  0  0  0  0  0  0  0  0  0  0  0
   30.6558   32.0675   37.3672 C   0  0  0  0  0  0  0  0  0  0  0  0
   31.0733   31.0062   38.1845 C   0  0  0  0  0  0  0  0  0  0  0  0
   30.0057   30.3319   39.0396 C   0  0  0  0  0  0  0  0  0  0  0  0
   30.1606   28.8119   39.2329 C   0  0  0  0  0  0  0  0  0  0  0  0
  1  2  1  0
  2  3  2  0
  2  4  1  0
  4  5  2  0
  5  6  1  0
  6  7  2  0
  7  8  1  0
  8  9  2  0
  9 10  1  0
 10 11  2  0
 11 12  1  0
 12 13  2  0
 13 14  1  0
  8 15  1  0
 15 16  1  0
 16 17  1  0
 17 18  1  0
 18 19  2  0
 19 20  1  0
 20 21  1  0
 21 22  1  0
 19 23  1  0
 23 24  2  0
 24 25  1  0
 25 26  2  0
 26 27  1  0
 27 28  1  0
 13  4  1  0
 28 15  1  0
 12  7  1  0
 26 18  1  0
M  END
>  <AAScore>  (1) 
23.63836910743213

>  <RootName>  (1) 
./4ZLY/04_DeltaGEst/trajectory_01/rank_01/lead_0171

$$$$
