confid_5
     RDKit          3D

 27 30  0  0  0  0  0  0  0  0999 V2000
   25.3300   26.2600   34.7600 N   0  0  0  0  0  0  0  0  0  0  0  0
   26.1200   25.9200   33.6900 C   0  0  0  0  0  0  0  0  0  0  0  0
   25.6300   25.1100   32.9400 O   0  0  0  0  0  0  0  0  0  0  0  0
   27.5200   26.3800   33.4600 C   0  0  0  0  0  0  0  0  0  0  0  0
   28.1600   26.6300   34.6100 N   0  0  0  0  0  0  0  0  0  0  0  0
   29.4800   26.8500   34.5700 N   0  0  0  0  0  0  0  0  0  0  0  0
   30.1900   26.7800   33.4400 C   0  0  0  0  0  0  0  0  0  0  0  0
   31.5600   27.0500   33.5000 C   0  0  0  0  0  0  0  0  0  0  0  0
   32.2700   27.2400   32.3100 C   0  0  0  0  0  0  0  0  0  0  0  0
   31.6100   27.2500   31.0800 C   0  0  0  0  0  0  0  0  0  0  0  0
   30.2700   26.8700   31.0600 C   0  0  0  0  0  0  0  0  0  0  0  0
   29.5100   26.6900   32.2300 C   0  0  0  0  0  0  0  0  0  0  0  0
   28.1400   26.4100   32.2000 C   0  0  0  0  0  0  0  0  0  0  0  0
   27.4300   26.1300   31.0500 N   0  0  0  0  0  0  0  0  0  0  0  0
   26.5200   27.1359   30.4936 C   0  0  0  0  0  0  0  0  0  0  0  0
   26.6289   27.1468   28.9669 C   0  0  0  0  0  0  0  0  0  0  0  0
   26.5225   25.7894   28.4045 N   0  0  0  0  0  0  0  0  0  0  0  0
   26.2510   25.6261   26.9950 C   0  0  0  0  0  0  0  0  0  0  0  0
   25.3616   24.6372   26.5402 C   0  0  0  0  0  0  0  0  0  0  0  0
   25.0970   24.4962   25.1714 C   0  0  0  0  0  0  0  0  0  0  0  0
   24.1736   23.4170   24.6778 C   0  0  0  0  0  0  0  0  0  0  0  0
   24.9046   22.2615   24.3721 O   0  0  0  0  0  0  0  0  0  0  0  0
   25.7532   25.3397   24.2665 C   0  0  0  0  0  0  0  0  0  0  0  0
   26.6084   26.2931   24.7190 N   0  0  0  0  0  0  0  0  0  0  0  0
   26.8645   26.4581   26.0433 C   0  0  0  0  0  0  0  0  0  0  0  0
   26.5451   24.6171   29.2940 C   0  0  0  0  0  0  0  0  0  0  0  0
   27.5662   24.8091   30.4206 C   0  0  0  0  0  0  0  0  0  0  0  0
  1  2  1  0
  2  3  2  0
  2  4  1  0
  4  5  2  0
  5  6  1  0
  6  7  2  0
  7  8  1  0
  8  9  2  0
  9 10  1  0
 10 11  2  0
 11 12  1  0
 12 13  2  0
 13 14  1  0
 14 15  1  0
 15 16  1  0
 16 17  1  0
 17 18  1  0
 18 19  2  0
 19 20  1  0
 20 21  1  0
 21 22  1  0
 20 23  2  0
 23 24  1  0
 24 25  2  0
 17 26  1  0
 26 27  1  0
 13  4  1  0
 27 14  1  0
 12  7  1  0
 25 18  1  0
M  END
>  <AAScore>  (1) 
3.614346223282943

>  <RootName>  (1) 
./4ZLY/04_DeltaGEst/trajectory_03/rank_01/lead_0356

$$$$
