confid_6
     RDKit          3D

 30 34  0  0  0  0  0  0  0  0999 V2000
   24.6900   26.1200   35.5300 N   0  0  0  0  0  0  0  0  0  0  0  0
   25.6600   25.6700   34.6600 C   0  0  0  0  0  0  0  0  0  0  0  0
   25.2400   25.0100   33.7200 O   0  0  0  0  0  0  0  0  0  0  0  0
   27.0300   26.2200   34.8800 C   0  0  0  0  0  0  0  0  0  0  0  0
   27.3500   26.7300   36.0700 N   0  0  0  0  0  0  0  0  0  0  0  0
   28.5700   27.1800   36.3300 N   0  0  0  0  0  0  0  0  0  0  0  0
   29.5300   27.1100   35.3900 C   0  0  0  0  0  0  0  0  0  0  0  0
   30.8300   27.5700   35.6500 C   0  0  0  0  0  0  0  0  0  0  0  0
   31.8500   27.5400   34.6900 C   0  0  0  0  0  0  0  0  0  0  0  0
   31.5100   27.1200   33.4000 C   0  0  0  0  0  0  0  0  0  0  0  0
   30.2200   26.6300   33.1100 C   0  0  0  0  0  0  0  0  0  0  0  0
   29.2400   26.6600   34.1000 C   0  0  0  0  0  0  0  0  0  0  0  0
   27.9300   26.2600   33.8100 C   0  0  0  0  0  0  0  0  0  0  0  0
   27.5200   25.7100   32.6100 N   0  0  0  0  0  0  0  0  0  0  0  0
   31.1530   28.0437   36.9686 N   0  0  0  0  0  0  0  0  0  0  0  0
   31.1725   27.1896   38.1586 C   0  0  0  0  0  0  0  0  0  0  0  0
   31.9230   27.9907   39.2504 C   0  0  0  0  0  0  0  0  0  0  0  0
   32.2996   29.2534   38.5562 C   0  0  0  0  0  0  0  0  0  0  0  0
   32.9875   30.3508   39.0778 C   0  0  0  0  0  0  0  0  0  0  0  0
   33.3729   30.3502   40.3786 F   0  0  0  0  0  0  0  0  0  0  0  0
   33.2196   31.4682   38.2435 C   0  0  0  0  0  0  0  0  0  0  0  0
   32.7237   31.4569   36.9184 C   0  0  0  0  0  0  0  0  0  0  0  0
   32.0328   30.3407   36.4230 C   0  0  0  0  0  0  0  0  0  0  0  0
   31.8477   29.2438   37.2673 C   0  0  0  0  0  0  0  0  0  0  0  0
   33.9200   32.6227   38.7404 N   0  0  0  0  0  0  0  0  0  0  0  0
   35.1163   32.6072   39.4990 C   0  0  0  0  0  0  0  0  0  0  0  0
   35.7565   31.5546   39.7624 O   0  0  0  0  0  0  0  0  0  0  0  0
   35.5775   33.9577   39.8762 C   0  0  0  0  0  0  0  0  0  0  0  0
   34.4616   34.8708   39.3474 C   0  0  0  0  0  0  0  0  0  0  0  0
   33.5407   34.0001   38.4718 C   0  0  0  0  0  0  0  0  0  0  0  0
  1  2  1  0
  2  3  2  0
  2  4  1  0
  4  5  2  0
  5  6  1  0
  6  7  2  0
  7  8  1  0
  8  9  2  0
  9 10  1  0
 10 11  2  0
 11 12  1  0
 12 13  2  0
 13 14  1  0
  8 15  1  0
 15 16  1  0
 16 17  1  0
 17 18  1  0
 18 19  2  0
 19 20  1  0
 19 21  1  0
 21 22  2  0
 22 23  1  0
 23 24  2  0
 21 25  1  0
 25 26  1  0
 26 27  2  0
 26 28  1  0
 28 29  1  0
 29 30  1  0
 13  4  1  0
 24 15  1  0
 30 25  1  0
 12  7  1  0
 24 18  1  0
M  END
>  <AAScore>  (1) 
21.005100557361768

>  <RootName>  (1) 
./4ZLY/04_DeltaGEst/trajectory_02/rank_01/lead_0232

$$$$
