confid_9
     RDKit          3D

 28 31  0  0  0  0  0  0  0  0999 V2000
   25.3300   26.2600   34.7600 N   0  0  0  0  0  0  0  0  0  0  0  0
   26.1200   25.9200   33.6900 C   0  0  0  0  0  0  0  0  0  0  0  0
   25.6300   25.1100   32.9400 O   0  0  0  0  0  0  0  0  0  0  0  0
   27.5200   26.3800   33.4600 C   0  0  0  0  0  0  0  0  0  0  0  0
   28.1600   26.6300   34.6100 N   0  0  0  0  0  0  0  0  0  0  0  0
   29.4800   26.8500   34.5700 N   0  0  0  0  0  0  0  0  0  0  0  0
   30.1900   26.7800   33.4400 C   0  0  0  0  0  0  0  0  0  0  0  0
   31.5600   27.0500   33.5000 C   0  0  0  0  0  0  0  0  0  0  0  0
   32.2700   27.2400   32.3100 C   0  0  0  0  0  0  0  0  0  0  0  0
   31.6100   27.2500   31.0800 C   0  0  0  0  0  0  0  0  0  0  0  0
   30.2700   26.8700   31.0600 C   0  0  0  0  0  0  0  0  0  0  0  0
   29.5100   26.6900   32.2300 C   0  0  0  0  0  0  0  0  0  0  0  0
   28.1400   26.4100   32.2000 C   0  0  0  0  0  0  0  0  0  0  0  0
   27.4300   26.1300   31.0500 N   0  0  0  0  0  0  0  0  0  0  0  0
   26.4447   27.0865   30.5431 C   0  0  0  0  0  0  0  0  0  0  0  0
   26.7811   27.4249   29.0957 C   0  0  0  0  0  0  0  0  0  0  0  0
   26.9504   26.2107   28.2908 N   0  0  0  0  0  0  0  0  0  0  0  0
   27.2926   24.9475   28.8990 C   0  0  0  0  0  0  0  0  0  0  0  0
   27.3135   23.8979   28.2004 O   0  0  0  0  0  0  0  0  0  0  0  0
   27.6194   24.8470   30.3637 C   0  0  0  0  0  0  0  0  0  0  0  0
   26.8017   26.3095   26.8938 N   0  0  0  0  0  0  0  0  0  0  0  0
   27.8241   25.8883   25.9731 C   0  0  0  0  0  0  0  0  0  0  0  0
   27.5006   25.6942   24.6202 C   0  0  0  0  0  0  0  0  0  0  0  0
   28.4878   25.3147   23.7044 C   0  0  0  0  0  0  0  0  0  0  0  0
   29.8059   25.1288   24.1314 C   0  0  0  0  0  0  0  0  0  0  0  0
   30.1401   25.3289   25.4741 C   0  0  0  0  0  0  0  0  0  0  0  0
   29.1569   25.7152   26.3918 C   0  0  0  0  0  0  0  0  0  0  0  0
   31.4218   25.1629   25.8858 F   0  0  0  0  0  0  0  0  0  0  0  0
  1  2  1  0
  2  3  2  0
  2  4  1  0
  4  5  2  0
  5  6  1  0
  6  7  2  0
  7  8  1  0
  8  9  2  0
  9 10  1  0
 10 11  2  0
 11 12  1  0
 12 13  2  0
 13 14  1  0
 14 15  1  0
 15 16  1  0
 16 17  1  0
 17 18  1  0
 18 19  2  0
 18 20  1  0
 17 21  1  0
 21 22  1  0
 22 23  2  0
 23 24  1  0
 24 25  2  0
 25 26  1  0
 26 27  2  0
 26 28  1  0
 13  4  1  0
 20 14  1  0
 27 22  1  0
 12  7  1  0
M  END
>  <AAScore>  (1) 
-1.6043475906765576

>  <RootName>  (1) 
./4ZLY/04_DeltaGEst/trajectory_03/rank_01/lead_0181

$$$$
