confid_15
     RDKit          3D

 27 30  0  0  0  0  0  0  0  0999 V2000
   24.5700   26.8800   35.5900 N   0  0  0  0  0  0  0  0  0  0  0  0
   25.5000   26.4000   34.6900 C   0  0  0  0  0  0  0  0  0  0  0  0
   25.1700   25.5200   33.9100 O   0  0  0  0  0  0  0  0  0  0  0  0
   26.8400   27.0200   34.7400 C   0  0  0  0  0  0  0  0  0  0  0  0
   27.3800   27.2800   35.9400 N   0  0  0  0  0  0  0  0  0  0  0  0
   28.6200   27.7400   36.0300 N   0  0  0  0  0  0  0  0  0  0  0  0
   29.3800   28.0000   34.9600 C   0  0  0  0  0  0  0  0  0  0  0  0
   30.6700   28.5000   35.1300 C   0  0  0  0  0  0  0  0  0  0  0  0
   31.5400   28.6100   34.0300 C   0  0  0  0  0  0  0  0  0  0  0  0
   31.0900   28.2200   32.7700 C   0  0  0  0  0  0  0  0  0  0  0  0
   29.8000   27.7000   32.6000 C   0  0  0  0  0  0  0  0  0  0  0  0
   28.9600   27.5500   33.7100 C   0  0  0  0  0  0  0  0  0  0  0  0
   27.6600   27.0300   33.5900 C   0  0  0  0  0  0  0  0  0  0  0  0
   27.1600   26.7400   32.3400 N   0  0  0  0  0  0  0  0  0  0  0  0
   23.1485   26.6339   35.5080 C   0  0  0  0  0  0  0  0  0  0  0  0
   22.6120   26.0597   34.3640 N   0  0  0  0  0  0  0  0  0  0  0  0
   21.2755   25.8115   34.1814 C   0  0  0  0  0  0  0  0  0  0  0  0
   20.4460   26.1769   35.2144 C   0  0  0  0  0  0  0  0  0  0  0  0
   19.0521   26.2482   35.7448 C   0  0  2  0  0  0  0  0  0  0  0  0
   18.1436   27.1640   34.9046 C   0  0  0  0  0  0  0  0  0  0  0  0
   17.8282   26.5503   33.6326 N   0  0  0  0  0  0  0  0  0  0  0  0
   17.0328   25.5453   33.5268 C   0  0  0  0  0  0  0  0  0  0  0  0
   19.5708   26.8678   36.9579 C   0  0  0  0  0  0  0  0  0  0  0  0
   20.9491   26.7693   36.3934 C   0  0  0  0  0  0  0  0  0  0  0  0
   22.2914   27.0176   36.5873 C   0  0  0  0  0  0  0  0  0  0  0  0
   22.7596   27.6245   37.8060 C   0  0  0  0  0  0  0  0  0  0  0  0
   23.1384   28.1141   38.7838 N   0  0  0  0  0  0  0  0  0  0  0  0
  1  2  1  0
  2  3  2  0
  2  4  1  0
  4  5  2  0
  5  6  1  0
  6  7  2  0
  7  8  1  0
  8  9  2  0
  9 10  1  0
 10 11  2  0
 11 12  1  0
 12 13  2  0
 13 14  1  0
  1 15  1  0
 15 16  2  0
 16 17  1  0
 17 18  2  0
 18 19  1  0
 19 20  1  6
 20 21  1  0
 21 22  2  3
 19 23  1  0
 23 24  1  0
 24 25  2  0
 25 26  1  0
 26 27  3  0
 13  4  1  0
 25 15  1  0
 12  7  1  0
 24 18  1  0
M  END
>  <AAScore>  (1) 
1567.2869674248411

>  <RootName>  (1) 
./4ZLY/04_DeltaGEst/trajectory_05/rank_00/lead_0301

$$$$
