confid_9
     RDKit          3D

 27 30  0  0  0  0  0  0  0  0999 V2000
   24.5500   26.3900   36.2500 N   0  0  0  0  0  0  0  0  0  0  0  0
   25.6000   26.1300   35.4000 C   0  0  0  0  0  0  0  0  0  0  0  0
   25.4300   25.4300   34.4200 O   0  0  0  0  0  0  0  0  0  0  0  0
   26.9800   26.6300   35.7100 C   0  0  0  0  0  0  0  0  0  0  0  0
   27.3200   26.8200   36.9800 N   0  0  0  0  0  0  0  0  0  0  0  0
   28.4700   27.4000   37.3100 N   0  0  0  0  0  0  0  0  0  0  0  0
   29.4000   27.6300   36.3700 C   0  0  0  0  0  0  0  0  0  0  0  0
   30.6600   28.0500   36.8000 C   0  0  0  0  0  0  0  0  0  0  0  0
   31.5700   28.3600   35.7800 C   0  0  0  0  0  0  0  0  0  0  0  0
   31.3700   28.1000   34.4300 C   0  0  0  0  0  0  0  0  0  0  0  0
   30.1200   27.5900   34.0500 C   0  0  0  0  0  0  0  0  0  0  0  0
   29.1500   27.3400   35.0300 C   0  0  0  0  0  0  0  0  0  0  0  0
   27.8800   26.8900   34.6600 C   0  0  0  0  0  0  0  0  0  0  0  0
   27.4800   26.6100   33.3700 N   0  0  0  0  0  0  0  0  0  0  0  0
   31.0162   28.2777   38.2245 C   0  0  0  0  0  0  0  0  0  0  0  0
   31.8801   29.2557   38.7078 C   0  0  0  0  0  0  0  0  0  0  0  0
   31.9435   29.0590   40.0720 C   0  0  0  0  0  0  0  0  0  0  0  0
   32.7968   29.7874   41.0608 C   0  0  0  0  0  0  0  0  0  0  0  0
   32.4011   29.4523   42.4468 N   0  0  0  0  0  0  0  0  0  0  0  0
   32.7406   30.3797   43.4996 C   0  0  0  0  0  0  0  0  0  0  0  0
   31.9710   30.5233   44.4877 O   0  0  0  0  0  0  0  0  0  0  0  0
   33.9658   31.2376   43.4109 C   0  0  0  0  0  0  0  0  0  0  0  0
   31.7187   28.1987   42.7474 C   0  0  0  0  0  0  0  0  0  0  0  0
   31.1011   27.5253   41.7634 C   0  0  0  0  0  0  0  0  0  0  0  0
   31.1891   28.0136   40.4270 N   0  0  0  0  0  0  0  0  0  0  0  0
   30.6153   27.5181   39.3175 C   0  0  0  0  0  0  0  0  0  0  0  0
   31.6541   27.6587   44.1522 C   0  0  0  0  0  0  0  0  0  0  0  0
  1  2  1  0
  2  3  2  0
  2  4  1  0
  4  5  2  0
  5  6  1  0
  6  7  2  0
  7  8  1  0
  8  9  2  0
  9 10  1  0
 10 11  2  0
 11 12  1  0
 12 13  2  0
 13 14  1  0
  8 15  1  0
 15 16  1  0
 16 17  2  0
 17 18  1  0
 18 19  1  0
 19 20  1  0
 20 21  2  0
 20 22  1  0
 19 23  1  0
 23 24  2  0
 24 25  1  0
 25 26  1  0
 23 27  1  0
 13  4  1  0
 26 15  2  0
 12  7  1  0
 25 17  1  0
M  END
>  <AAScore>  (1) 
6491.548715295185

>  <RootName>  (1) 
./4ZLY/04_DeltaGEst/trajectory_01/rank_01/lead_0043

$$$$
