confid_10
     RDKit          3D

 27 30  0  0  0  0  0  0  0  0999 V2000
   24.4800   26.1000   36.1300 N   0  0  0  0  0  0  0  0  0  0  0  0
   25.2500   26.2500   34.9900 C   0  0  0  0  0  0  0  0  0  0  0  0
   24.7400   25.7600   33.9900 O   0  0  0  0  0  0  0  0  0  0  0  0
   26.5900   26.8900   34.9600 C   0  0  0  0  0  0  0  0  0  0  0  0
   27.0600   27.2400   36.1600 N   0  0  0  0  0  0  0  0  0  0  0  0
   28.3000   27.7100   36.2400 N   0  0  0  0  0  0  0  0  0  0  0  0
   29.0500   27.9600   35.1500 C   0  0  0  0  0  0  0  0  0  0  0  0
   30.3400   28.4900   35.2600 C   0  0  0  0  0  0  0  0  0  0  0  0
   31.1100   28.8200   34.1400 C   0  0  0  0  0  0  0  0  0  0  0  0
   30.5200   28.6700   32.8800 C   0  0  0  0  0  0  0  0  0  0  0  0
   29.2900   28.0200   32.7700 C   0  0  0  0  0  0  0  0  0  0  0  0
   28.5200   27.7100   33.8900 C   0  0  0  0  0  0  0  0  0  0  0  0
   27.2700   27.0800   33.7600 C   0  0  0  0  0  0  0  0  0  0  0  0
   26.7500   26.8800   32.4900 N   0  0  0  0  0  0  0  0  0  0  0  0
   23.4665   25.0983   36.3332 C   0  0  0  0  0  0  0  0  0  0  0  0
   22.6698   25.1689   37.4300 N   0  0  0  0  0  0  0  0  0  0  0  0
   21.7162   24.2334   37.6667 C   0  0  0  0  0  0  0  0  0  0  0  0
   21.5276   23.1724   36.7786 C   0  0  0  0  0  0  0  0  0  0  0  0
   20.4818   22.2707   37.0462 O   0  0  0  0  0  0  0  0  0  0  0  0
   19.9422   21.3024   36.1448 C   0  0  0  0  0  0  0  0  0  0  0  0
   19.7734   21.8875   34.7372 C   0  0  0  0  0  0  0  0  0  0  0  0
   21.0618   21.8231   33.8907 C   0  0  0  0  0  0  0  0  0  0  0  0
   21.0307   22.8444   32.9554 F   0  0  0  0  0  0  0  0  0  0  0  0
   21.0835   20.6191   33.2063 F   0  0  0  0  0  0  0  0  0  0  0  0
   22.3646   21.9297   34.7036 C   0  0  0  0  0  0  0  0  0  0  0  0
   22.3840   23.0920   35.6564 C   0  0  0  0  0  0  0  0  0  0  0  0
   23.3265   24.0552   35.4719 N   0  0  0  0  0  0  0  0  0  0  0  0
  1  2  1  0
  2  3  2  0
  2  4  1  0
  4  5  2  0
  5  6  1  0
  6  7  2  0
  7  8  1  0
  8  9  2  0
  9 10  1  0
 10 11  2  0
 11 12  1  0
 12 13  2  0
 13 14  1  0
  1 15  1  0
 15 16  2  0
 16 17  1  0
 17 18  2  0
 18 19  1  0
 19 20  1  0
 20 21  1  0
 21 22  1  0
 22 23  1  0
 22 24  1  0
 22 25  1  0
 25 26  1  0
 26 27  2  0
 13  4  1  0
 27 15  1  0
 12  7  1  0
 26 18  1  0
M  END
>  <AAScore>  (1) 
173.71144282985972

>  <RootName>  (1) 
./4ZLY/04_DeltaGEst/trajectory_00/rank_01/lead_0031

$$$$
