confid_5
     RDKit          3D

 29 32  0  0  0  0  0  0  0  0999 V2000
   24.2000   26.2400   35.6900 N   0  0  0  0  0  0  0  0  0  0  0  0
   24.8500   26.2800   34.4800 C   0  0  0  0  0  0  0  0  0  0  0  0
   24.3100   25.7400   33.5400 O   0  0  0  0  0  0  0  0  0  0  0  0
   26.1800   26.9700   34.4700 C   0  0  0  0  0  0  0  0  0  0  0  0
   26.6500   27.6000   35.5500 N   0  0  0  0  0  0  0  0  0  0  0  0
   27.7900   28.2700   35.6200 N   0  0  0  0  0  0  0  0  0  0  0  0
   28.5400   28.3000   34.5100 C   0  0  0  0  0  0  0  0  0  0  0  0
   29.7700   28.9400   34.5600 C   0  0  0  0  0  0  0  0  0  0  0  0
   30.7000   28.8900   33.5000 C   0  0  0  0  0  0  0  0  0  0  0  0
   30.3700   28.1400   32.3700 C   0  0  0  0  0  0  0  0  0  0  0  0
   29.1200   27.5200   32.2800 C   0  0  0  0  0  0  0  0  0  0  0  0
   28.2100   27.6100   33.3300 C   0  0  0  0  0  0  0  0  0  0  0  0
   26.9700   26.9700   33.3100 C   0  0  0  0  0  0  0  0  0  0  0  0
   26.5300   26.2400   32.2200 N   0  0  0  0  0  0  0  0  0  0  0  0
   30.1418   29.6760   35.7395 N   0  0  0  0  0  0  0  0  0  0  0  0
   31.2620   29.1968   36.5595 C   0  0  0  0  0  0  0  0  0  0  0  0
   31.3321   29.9362   37.8998 C   0  0  0  0  0  0  0  0  0  0  0  0
   31.2310   31.3875   37.6956 N   0  0  0  0  0  0  0  0  0  0  0  0
   31.8282   32.2722   38.6624 C   0  0  0  0  0  0  0  0  0  0  0  0
   31.9136   31.9079   39.8673 O   0  0  0  0  0  0  0  0  0  0  0  0
   32.3361   33.6067   38.2768 C   0  0  0  0  0  0  0  0  0  0  0  0
   32.9679   33.8019   37.0364 C   0  0  0  0  0  0  0  0  0  0  0  0
   33.4588   35.0635   36.6852 C   0  0  0  0  0  0  0  0  0  0  0  0
   33.3321   36.1370   37.5715 C   0  0  0  0  0  0  0  0  0  0  0  0
   33.8094   37.3592   37.2296 F   0  0  0  0  0  0  0  0  0  0  0  0
   32.7221   35.9474   38.8144 C   0  0  0  0  0  0  0  0  0  0  0  0
   32.2296   34.6876   39.1693 C   0  0  0  0  0  0  0  0  0  0  0  0
   30.2941   31.9334   36.6985 C   0  0  0  0  0  0  0  0  0  0  0  0
   29.3622   30.8493   36.1501 C   0  0  0  0  0  0  0  0  0  0  0  0
  1  2  1  0
  2  3  2  0
  2  4  1  0
  4  5  2  0
  5  6  1  0
  6  7  2  0
  7  8  1  0
  8  9  2  0
  9 10  1  0
 10 11  2  0
 11 12  1  0
 12 13  2  0
 13 14  1  0
  8 15  1  0
 15 16  1  0
 16 17  1  0
 17 18  1  0
 18 19  1  0
 19 20  2  0
 19 21  1  0
 21 22  2  0
 22 23  1  0
 23 24  2  0
 24 25  1  0
 24 26  1  0
 26 27  2  0
 18 28  1  0
 28 29  1  0
 13  4  1  0
 29 15  1  0
 12  7  1  0
 27 21  1  0
M  END
>  <AAScore>  (1) 
-8.222100859530945

>  <RootName>  (1) 
./4ZLY/04_DeltaGEst/trajectory_04/rank_01/lead_0457

$$$$
