confid_10
     RDKit          3D

 31 35  0  0  0  0  0  0  0  0999 V2000
   24.5700   26.8800   35.5900 N   0  0  0  0  0  0  0  0  0  0  0  0
   25.5000   26.4000   34.6900 C   0  0  0  0  0  0  0  0  0  0  0  0
   25.1700   25.5200   33.9100 O   0  0  0  0  0  0  0  0  0  0  0  0
   26.8400   27.0200   34.7400 C   0  0  0  0  0  0  0  0  0  0  0  0
   27.3800   27.2800   35.9400 N   0  0  0  0  0  0  0  0  0  0  0  0
   28.6200   27.7400   36.0300 N   0  0  0  0  0  0  0  0  0  0  0  0
   29.3800   28.0000   34.9600 C   0  0  0  0  0  0  0  0  0  0  0  0
   30.6700   28.5000   35.1300 C   0  0  0  0  0  0  0  0  0  0  0  0
   31.5400   28.6100   34.0300 C   0  0  0  0  0  0  0  0  0  0  0  0
   31.0900   28.2200   32.7700 C   0  0  0  0  0  0  0  0  0  0  0  0
   29.8000   27.7000   32.6000 C   0  0  0  0  0  0  0  0  0  0  0  0
   28.9600   27.5500   33.7100 C   0  0  0  0  0  0  0  0  0  0  0  0
   27.6600   27.0300   33.5900 C   0  0  0  0  0  0  0  0  0  0  0  0
   27.1600   26.7400   32.3400 N   0  0  0  0  0  0  0  0  0  0  0  0
   23.1652   26.5862   35.5291 C   0  0  0  0  0  0  0  0  0  0  0  0
   22.5184   26.4124   36.6428 N   0  0  0  0  0  0  0  0  0  0  0  0
   21.1128   26.1412   36.7058 C   0  0  0  0  0  0  0  0  0  0  0  0
   20.4047   25.9157   35.5895 C   0  0  0  0  0  0  0  0  0  0  0  0
   21.0621   25.9604   34.2400 C   0  0  2  0  0  0  0  0  0  0  0  0
   21.1997   24.5137   33.7600 C   0  0  0  0  0  0  0  0  0  0  0  0
   19.9074   23.8058   33.8547 N   0  0  0  0  0  0  0  0  0  0  0  0
   19.8173   22.4771   33.2368 C   0  0  0  0  0  0  0  0  0  0  0  0
   18.3769   22.0949   32.8221 C   0  0  0  0  0  0  0  0  0  0  0  0
   17.3470   23.0206   33.3413 N   0  0  0  0  0  0  0  0  0  0  0  0
   15.9920   22.4956   33.1069 C   0  0  0  0  0  0  0  0  0  0  0  0
   17.5669   23.4524   34.7402 C   0  0  1  0  0  0  0  0  0  0  0  0
   17.5857   22.2832   35.7482 C   0  0  0  0  0  0  0  0  0  0  0  0
   18.8697   24.2193   34.7851 C   0  0  0  0  0  0  0  0  0  0  0  0
   19.0871   25.2521   35.6429 C   0  0  0  0  0  0  0  0  0  0  0  0
   18.0438   25.7461   36.6168 C   0  0  0  0  0  0  0  0  0  0  0  0
   22.3974   26.7360   34.2345 C   0  0  0  0  0  0  0  0  0  0  0  0
  1  2  1  0
  2  3  2  0
  2  4  1  0
  4  5  2  0
  5  6  1  0
  6  7  2  0
  7  8  1  0
  8  9  2  0
  9 10  1  0
 10 11  2  0
 11 12  1  0
 12 13  2  0
 13 14  1  0
  1 15  1  0
 15 16  2  0
 16 17  1  0
 17 18  2  0
 18 19  1  0
 19 20  1  1
 20 21  1  0
 21 22  1  0
 22 23  1  0
 23 24  1  0
 24 25  1  0
 24 26  1  0
 26 27  1  1
 26 28  1  0
 28 29  2  0
 29 30  1  0
 19 31  1  0
 13  4  1  0
 31 15  1  0
 12  7  1  0
 29 18  1  0
 28 21  1  0
M  END
>  <AAScore>  (1) 
7124.478643728224

>  <RootName>  (1) 
./4ZLY/04_DeltaGEst/trajectory_05/rank_00/lead_0055

$$$$
