confid_11
     RDKit          3D

 28 31  0  0  0  0  0  0  0  0999 V2000
   25.3300   26.2600   34.7600 N   0  0  0  0  0  0  0  0  0  0  0  0
   26.1200   25.9200   33.6900 C   0  0  0  0  0  0  0  0  0  0  0  0
   25.6300   25.1100   32.9400 O   0  0  0  0  0  0  0  0  0  0  0  0
   27.5200   26.3800   33.4600 C   0  0  0  0  0  0  0  0  0  0  0  0
   28.1600   26.6300   34.6100 N   0  0  0  0  0  0  0  0  0  0  0  0
   29.4800   26.8500   34.5700 N   0  0  0  0  0  0  0  0  0  0  0  0
   30.1900   26.7800   33.4400 C   0  0  0  0  0  0  0  0  0  0  0  0
   31.5600   27.0500   33.5000 C   0  0  0  0  0  0  0  0  0  0  0  0
   32.2700   27.2400   32.3100 C   0  0  0  0  0  0  0  0  0  0  0  0
   31.6100   27.2500   31.0800 C   0  0  0  0  0  0  0  0  0  0  0  0
   30.2700   26.8700   31.0600 C   0  0  0  0  0  0  0  0  0  0  0  0
   29.5100   26.6900   32.2300 C   0  0  0  0  0  0  0  0  0  0  0  0
   28.1400   26.4100   32.2000 C   0  0  0  0  0  0  0  0  0  0  0  0
   27.4300   26.1300   31.0500 N   0  0  0  0  0  0  0  0  0  0  0  0
   23.8908   26.2231   34.7755 C   0  0  0  0  0  0  0  0  0  0  0  0
   23.2506   26.0509   35.9600 N   0  0  0  0  0  0  0  0  0  0  0  0
   21.8971   26.0366   36.0576 C   0  0  0  0  0  0  0  0  0  0  0  0
   21.0910   26.2036   34.9180 C   0  0  0  0  0  0  0  0  0  0  0  0
   19.5837   26.2278   35.1081 C   0  0  0  0  0  0  0  0  0  0  0  0
   18.9797   27.6438   35.0256 C   0  0  0  0  0  0  0  0  0  0  0  0
   19.4535   28.3929   33.8362 N   0  0  0  0  0  0  0  0  0  0  0  0
   19.4956   29.8359   34.1256 C   0  0  0  0  0  0  0  0  0  0  0  0
   18.6209   28.1551   32.6331 C   0  0  0  0  0  0  0  0  0  0  0  0
   18.7059   26.7337   32.1457 C   0  0  0  0  0  0  0  0  0  0  0  0
   19.8553   26.0574   32.0967 C   0  0  0  0  0  0  0  0  0  0  0  0
   21.0579   26.6596   32.4615 O   0  0  0  0  0  0  0  0  0  0  0  0
   21.7373   26.4074   33.6641 C   0  0  0  0  0  0  0  0  0  0  0  0
   23.1346   26.4319   33.6130 C   0  0  0  0  0  0  0  0  0  0  0  0
  1  2  1  0
  2  3  2  0
  2  4  1  0
  4  5  2  0
  5  6  1  0
  6  7  2  0
  7  8  1  0
  8  9  2  0
  9 10  1  0
 10 11  2  0
 11 12  1  0
 12 13  2  0
 13 14  1  0
  1 15  1  0
 15 16  2  0
 16 17  1  0
 17 18  2  0
 18 19  1  0
 19 20  1  0
 20 21  1  0
 21 22  1  0
 21 23  1  0
 23 24  1  0
 24 25  2  0
 25 26  1  0
 26 27  1  0
 27 28  2  0
 13  4  1  0
 28 15  1  0
 12  7  1  0
 27 18  1  0
M  END
>  <AAScore>  (1) 
2053.4798656781377

>  <RootName>  (1) 
./4ZLY/04_DeltaGEst/trajectory_03/rank_00/lead_0415

$$$$
