confid_14
     RDKit          3D

 27 30  0  0  0  0  0  0  0  0999 V2000
   24.2000   26.2400   35.6900 N   0  0  0  0  0  0  0  0  0  0  0  0
   24.8500   26.2800   34.4800 C   0  0  0  0  0  0  0  0  0  0  0  0
   24.3100   25.7400   33.5400 O   0  0  0  0  0  0  0  0  0  0  0  0
   26.1800   26.9700   34.4700 C   0  0  0  0  0  0  0  0  0  0  0  0
   26.6500   27.6000   35.5500 N   0  0  0  0  0  0  0  0  0  0  0  0
   27.7900   28.2700   35.6200 N   0  0  0  0  0  0  0  0  0  0  0  0
   28.5400   28.3000   34.5100 C   0  0  0  0  0  0  0  0  0  0  0  0
   29.7700   28.9400   34.5600 C   0  0  0  0  0  0  0  0  0  0  0  0
   30.7000   28.8900   33.5000 C   0  0  0  0  0  0  0  0  0  0  0  0
   30.3700   28.1400   32.3700 C   0  0  0  0  0  0  0  0  0  0  0  0
   29.1200   27.5200   32.2800 C   0  0  0  0  0  0  0  0  0  0  0  0
   28.2100   27.6100   33.3300 C   0  0  0  0  0  0  0  0  0  0  0  0
   26.9700   26.9700   33.3100 C   0  0  0  0  0  0  0  0  0  0  0  0
   26.5300   26.2400   32.2200 N   0  0  0  0  0  0  0  0  0  0  0  0
   22.7685   26.2640   35.8567 C   0  0  0  0  0  0  0  0  0  0  0  0
   22.3102   25.7322   36.9681 N   0  0  0  0  0  0  0  0  0  0  0  0
   21.0066   25.5298   37.5523 C   0  0  0  0  0  0  0  0  0  0  0  0
   19.9219   25.1096   36.8881 C   0  0  0  0  0  0  0  0  0  0  0  0
   19.9171   25.0164   35.4052 C   0  0  0  0  0  0  0  0  0  0  0  0
   19.5186   26.3540   34.9742 N   0  0  0  0  0  0  0  0  0  0  0  0
   18.1873   26.6946   35.4167 C   0  0  0  0  0  0  0  0  0  0  0  0
   17.4760   27.4897   34.7462 O   0  0  0  0  0  0  0  0  0  0  0  0
   17.7183   26.1464   36.7286 C   0  0  0  0  0  0  0  0  0  0  0  0
   18.5857   25.4084   37.4599 C   0  0  0  0  0  0  0  0  0  0  0  0
   16.3814   26.5313   37.2909 C   0  0  0  0  0  0  0  0  0  0  0  0
   20.5106   27.4365   35.0918 C   0  0  0  0  0  0  0  0  0  0  0  0
   21.9413   26.9771   34.7697 C   0  0  0  0  0  0  0  0  0  0  0  0
  1  2  1  0
  2  3  2  0
  2  4  1  0
  4  5  2  0
  5  6  1  0
  6  7  2  0
  7  8  1  0
  8  9  2  0
  9 10  1  0
 10 11  2  0
 11 12  1  0
 12 13  2  0
 13 14  1  0
  1 15  1  0
 15 16  2  0
 16 17  1  0
 17 18  2  0
 18 19  1  0
 19 20  1  0
 20 21  1  0
 21 22  2  0
 21 23  1  0
 23 24  2  0
 23 25  1  0
 20 26  1  0
 26 27  1  0
 13  4  1  0
 27 15  1  0
 12  7  1  0
 24 18  1  0
M  END
>  <AAScore>  (1) 
120.57003452580888

>  <RootName>  (1) 
./4ZLY/04_DeltaGEst/trajectory_04/rank_00/lead_0426

$$$$
