confid_9
     RDKit          3D

 28 31  0  0  0  0  0  0  0  0999 V2000
   24.2000   26.2400   35.6900 N   0  0  0  0  0  0  0  0  0  0  0  0
   24.8500   26.2800   34.4800 C   0  0  0  0  0  0  0  0  0  0  0  0
   24.3100   25.7400   33.5400 O   0  0  0  0  0  0  0  0  0  0  0  0
   26.1800   26.9700   34.4700 C   0  0  0  0  0  0  0  0  0  0  0  0
   26.6500   27.6000   35.5500 N   0  0  0  0  0  0  0  0  0  0  0  0
   27.7900   28.2700   35.6200 N   0  0  0  0  0  0  0  0  0  0  0  0
   28.5400   28.3000   34.5100 C   0  0  0  0  0  0  0  0  0  0  0  0
   29.7700   28.9400   34.5600 C   0  0  0  0  0  0  0  0  0  0  0  0
   30.7000   28.8900   33.5000 C   0  0  0  0  0  0  0  0  0  0  0  0
   30.3700   28.1400   32.3700 C   0  0  0  0  0  0  0  0  0  0  0  0
   29.1200   27.5200   32.2800 C   0  0  0  0  0  0  0  0  0  0  0  0
   28.2100   27.6100   33.3300 C   0  0  0  0  0  0  0  0  0  0  0  0
   26.9700   26.9700   33.3100 C   0  0  0  0  0  0  0  0  0  0  0  0
   26.5300   26.2400   32.2200 N   0  0  0  0  0  0  0  0  0  0  0  0
   23.2460   25.2242   36.0589 C   0  0  0  0  0  0  0  0  0  0  0  0
   23.1672   24.0657   35.3521 N   0  0  0  0  0  0  0  0  0  0  0  0
   22.2914   23.0806   35.6712 C   0  0  0  0  0  0  0  0  0  0  0  0
   21.4330   23.2166   36.7735 C   0  0  0  0  0  0  0  0  0  0  0  0
   20.4434   22.1161   37.0676 C   0  0  0  0  0  0  0  0  0  0  0  0
   19.0977   22.5059   36.5817 N   0  0  0  0  0  0  0  0  0  0  0  0
   18.4349   21.3668   35.9222 C   0  0  0  0  0  0  0  0  0  0  0  0
   18.2405   23.0525   37.6610 C   0  0  0  0  0  0  0  0  0  0  0  0
   18.3174   24.5587   37.7005 C   0  0  0  0  0  0  0  0  0  0  0  0
   19.3121   25.2253   38.1858 N   0  0  0  0  0  0  0  0  0  0  0  0
   20.5450   24.6579   38.6862 C   0  0  0  0  0  0  0  0  0  0  0  0
   21.4955   24.4036   37.5396 C   0  0  0  0  0  0  0  0  0  0  0  0
   22.4054   25.4120   37.1661 C   0  0  0  0  0  0  0  0  0  0  0  0
   22.4550   26.5806   37.8568 F   0  0  0  0  0  0  0  0  0  0  0  0
  1  2  1  0
  2  3  2  0
  2  4  1  0
  4  5  2  0
  5  6  1  0
  6  7  2  0
  7  8  1  0
  8  9  2  0
  9 10  1  0
 10 11  2  0
 11 12  1  0
 12 13  2  0
 13 14  1  0
  1 15  1  0
 15 16  2  0
 16 17  1  0
 17 18  2  0
 18 19  1  0
 19 20  1  0
 20 21  1  0
 20 22  1  0
 22 23  1  0
 23 24  2  0
 24 25  1  0
 25 26  1  0
 26 27  2  0
 27 28  1  0
 13  4  1  0
 27 15  1  0
 12  7  1  0
 26 18  1  0
M  END
>  <AAScore>  (1) 
771.9061159059758

>  <RootName>  (1) 
./4ZLY/04_DeltaGEst/trajectory_04/rank_00/lead_0407

$$$$
