confid_5
     RDKit          3D

 33 37  0  0  0  0  0  0  0  0999 V2000
   24.5500   26.3900   36.2500 N   0  0  0  0  0  0  0  0  0  0  0  0
   25.6000   26.1300   35.4000 C   0  0  0  0  0  0  0  0  0  0  0  0
   25.4300   25.4300   34.4200 O   0  0  0  0  0  0  0  0  0  0  0  0
   26.9800   26.6300   35.7100 C   0  0  0  0  0  0  0  0  0  0  0  0
   27.3200   26.8200   36.9800 N   0  0  0  0  0  0  0  0  0  0  0  0
   28.4700   27.4000   37.3100 N   0  0  0  0  0  0  0  0  0  0  0  0
   29.4000   27.6300   36.3700 C   0  0  0  0  0  0  0  0  0  0  0  0
   30.6600   28.0500   36.8000 C   0  0  0  0  0  0  0  0  0  0  0  0
   31.5700   28.3600   35.7800 C   0  0  0  0  0  0  0  0  0  0  0  0
   31.3700   28.1000   34.4300 C   0  0  0  0  0  0  0  0  0  0  0  0
   30.1200   27.5900   34.0500 C   0  0  0  0  0  0  0  0  0  0  0  0
   29.1500   27.3400   35.0300 C   0  0  0  0  0  0  0  0  0  0  0  0
   27.8800   26.8900   34.6600 C   0  0  0  0  0  0  0  0  0  0  0  0
   27.4800   26.6100   33.3700 N   0  0  0  0  0  0  0  0  0  0  0  0
   23.4085   25.5257   36.3780 C   0  0  0  0  0  0  0  0  0  0  0  0
   22.3420   25.9867   36.9737 N   0  0  0  0  0  0  0  0  0  0  0  0
   21.1371   25.2382   37.1847 C   0  0  0  0  0  0  0  0  0  0  0  0
   20.5139   24.7008   36.1457 C   0  0  0  0  0  0  0  0  0  0  0  0
   19.3836   23.7787   35.7937 C   0  0  0  0  0  0  0  0  0  0  0  0
   19.6483   23.7820   34.4235 O   0  0  0  0  0  0  0  0  0  0  0  0
   20.6596   24.7107   34.6529 C   0  0  2  0  0  0  0  0  0  0  0  0
   22.0448   24.2774   34.1200 C   0  0  0  0  0  0  0  0  0  0  0  0
   22.8797   23.4220   35.0856 C   0  0  0  0  0  0  0  0  0  0  0  0
   23.5609   24.0701   36.0748 C   0  0  0  0  0  0  0  0  0  0  0  0
   24.5117   23.3945   36.8345 O   0  0  0  0  0  0  0  0  0  0  0  0
   24.3065   23.1158   38.2106 C   0  0  0  0  0  0  0  0  0  0  0  0
   23.1935   22.0860   38.3431 C   0  0  0  0  0  0  0  0  0  0  0  0
   23.3890   21.0421   37.3079 N   0  0  0  0  0  0  0  0  0  0  0  0
   22.4183   21.1228   36.1829 C   0  0  0  0  0  0  0  0  0  0  0  0
   22.9818   21.8688   34.9178 C   0  0  0  0  0  0  0  0  0  0  0  0
   22.1421   21.3664   33.7079 C   0  0  0  0  0  0  0  0  0  0  0  0
   24.4432   21.4424   34.6167 C   0  0  0  0  0  0  0  0  0  0  0  0
   23.4376   19.6965   37.9042 C   0  0  0  0  0  0  0  0  0  0  0  0
  1  2  1  0
  2  3  2  0
  2  4  1  0
  4  5  2  0
  5  6  1  0
  6  7  2  0
  7  8  1  0
  8  9  2  0
  9 10  1  0
 10 11  2  0
 11 12  1  0
 12 13  2  0
 13 14  1  0
  1 15  1  0
 15 16  2  0
 16 17  1  0
 17 18  2  0
 18 19  1  0
 19 20  1  0
 20 21  1  0
 21 22  1  1
 22 23  1  0
 23 24  2  0
 24 25  1  0
 25 26  1  0
 26 27  1  0
 27 28  1  0
 28 29  1  0
 29 30  1  0
 30 31  1  0
 30 32  1  0
 28 33  1  0
 13  4  1  0
 24 15  1  0
 12  7  1  0
 21 18  1  0
 30 23  1  0
M  END
>  <AAScore>  (1) 
1953.6874422323317

>  <RootName>  (1) 
./4ZLY/04_DeltaGEst/trajectory_01/rank_00/lead_0352

$$$$
