confid_8
     RDKit          3D

 27 30  0  0  0  0  0  0  0  0999 V2000
   24.5700   26.8800   35.5900 N   0  0  0  0  0  0  0  0  0  0  0  0
   25.5000   26.4000   34.6900 C   0  0  0  0  0  0  0  0  0  0  0  0
   25.1700   25.5200   33.9100 O   0  0  0  0  0  0  0  0  0  0  0  0
   26.8400   27.0200   34.7400 C   0  0  0  0  0  0  0  0  0  0  0  0
   27.3800   27.2800   35.9400 N   0  0  0  0  0  0  0  0  0  0  0  0
   28.6200   27.7400   36.0300 N   0  0  0  0  0  0  0  0  0  0  0  0
   29.3800   28.0000   34.9600 C   0  0  0  0  0  0  0  0  0  0  0  0
   30.6700   28.5000   35.1300 C   0  0  0  0  0  0  0  0  0  0  0  0
   31.5400   28.6100   34.0300 C   0  0  0  0  0  0  0  0  0  0  0  0
   31.0900   28.2200   32.7700 C   0  0  0  0  0  0  0  0  0  0  0  0
   29.8000   27.7000   32.6000 C   0  0  0  0  0  0  0  0  0  0  0  0
   28.9600   27.5500   33.7100 C   0  0  0  0  0  0  0  0  0  0  0  0
   27.6600   27.0300   33.5900 C   0  0  0  0  0  0  0  0  0  0  0  0
   27.1600   26.7400   32.3400 N   0  0  0  0  0  0  0  0  0  0  0  0
   23.1483   26.7027   35.4629 C   0  0  0  0  0  0  0  0  0  0  0  0
   22.3907   26.6245   36.5903 N   0  0  0  0  0  0  0  0  0  0  0  0
   21.0396   26.4893   36.5478 C   0  0  0  0  0  0  0  0  0  0  0  0
   20.3762   26.4241   35.3160 C   0  0  0  0  0  0  0  0  0  0  0  0
   18.8741   26.3265   35.2579 C   0  0  0  0  0  0  0  0  0  0  0  0
   18.4408   25.5936   34.0607 N   0  0  0  0  0  0  0  0  0  0  0  0
   19.1615   25.7635   32.8232 C   0  0  0  0  0  0  0  0  0  0  0  0
   18.7121   25.2786   31.7494 O   0  0  0  0  0  0  0  0  0  0  0  0
   20.4361   26.5558   32.7919 C   0  0  0  0  0  0  0  0  0  0  0  0
   21.1260   26.5290   34.1309 C   0  0  0  0  0  0  0  0  0  0  0  0
   22.5166   26.6854   34.2075 C   0  0  0  0  0  0  0  0  0  0  0  0
   17.2116   24.7914   34.1048 C   0  0  0  0  0  0  0  0  0  0  0  0
   17.5475   23.3043   34.1159 C   0  0  0  0  0  0  0  0  0  0  0  0
  1  2  1  0
  2  3  2  0
  2  4  1  0
  4  5  2  0
  5  6  1  0
  6  7  2  0
  7  8  1  0
  8  9  2  0
  9 10  1  0
 10 11  2  0
 11 12  1  0
 12 13  2  0
 13 14  1  0
  1 15  1  0
 15 16  2  0
 16 17  1  0
 17 18  2  0
 18 19  1  0
 19 20  1  0
 20 21  1  0
 21 22  2  0
 21 23  1  0
 23 24  1  0
 24 25  2  0
 20 26  1  0
 26 27  1  0
 13  4  1  0
 25 15  1  0
 12  7  1  0
 24 18  1  0
M  END
>  <AAScore>  (1) 
412.0130454399253

>  <RootName>  (1) 
./4ZLY/04_DeltaGEst/trajectory_05/rank_00/lead_0345

$$$$
