confid_5
     RDKit          3D

 29 32  0  0  0  0  0  0  0  0999 V2000
   24.5500   26.3900   36.2500 N   0  0  0  0  0  0  0  0  0  0  0  0
   25.6000   26.1300   35.4000 C   0  0  0  0  0  0  0  0  0  0  0  0
   25.4300   25.4300   34.4200 O   0  0  0  0  0  0  0  0  0  0  0  0
   26.9800   26.6300   35.7100 C   0  0  0  0  0  0  0  0  0  0  0  0
   27.3200   26.8200   36.9800 N   0  0  0  0  0  0  0  0  0  0  0  0
   28.4700   27.4000   37.3100 N   0  0  0  0  0  0  0  0  0  0  0  0
   29.4000   27.6300   36.3700 C   0  0  0  0  0  0  0  0  0  0  0  0
   30.6600   28.0500   36.8000 C   0  0  0  0  0  0  0  0  0  0  0  0
   31.5700   28.3600   35.7800 C   0  0  0  0  0  0  0  0  0  0  0  0
   31.3700   28.1000   34.4300 C   0  0  0  0  0  0  0  0  0  0  0  0
   30.1200   27.5900   34.0500 C   0  0  0  0  0  0  0  0  0  0  0  0
   29.1500   27.3400   35.0300 C   0  0  0  0  0  0  0  0  0  0  0  0
   27.8800   26.8900   34.6600 C   0  0  0  0  0  0  0  0  0  0  0  0
   27.4800   26.6100   33.3700 N   0  0  0  0  0  0  0  0  0  0  0  0
   30.9710   28.3378   38.1821 N   0  0  0  0  0  0  0  0  0  0  0  0
   32.2662   27.9525   38.7451 C   0  0  0  0  0  0  0  0  0  0  0  0
   33.0678   29.2125   39.0928 C   0  0  0  0  0  0  0  0  0  0  0  0
   32.2565   30.2515   39.7745 N   0  0  0  0  0  0  0  0  0  0  0  0
   32.4481   31.6350   39.2808 C   0  0  0  0  0  0  0  0  0  0  0  0
   31.6356   31.9603   38.0433 C   0  0  0  0  0  0  0  0  0  0  0  0
   32.1258   31.6344   36.7662 C   0  0  0  0  0  0  0  0  0  0  0  0
   31.3619   31.8941   35.6252 C   0  0  0  0  0  0  0  0  0  0  0  0
   30.1111   32.5026   35.7430 C   0  0  0  0  0  0  0  0  0  0  0  0
   29.3707   32.7511   34.6348 F   0  0  0  0  0  0  0  0  0  0  0  0
   29.6301   32.8695   37.0017 C   0  0  0  0  0  0  0  0  0  0  0  0
   30.3884   32.6106   38.1484 C   0  0  0  0  0  0  0  0  0  0  0  0
   29.8997   32.9879   39.3568 F   0  0  0  0  0  0  0  0  0  0  0  0
   30.8712   29.8782   40.1362 C   0  0  0  0  0  0  0  0  0  0  0  0
   30.1063   29.2274   38.9683 C   0  0  0  0  0  0  0  0  0  0  0  0
  1  2  1  0
  2  3  2  0
  2  4  1  0
  4  5  2  0
  5  6  1  0
  6  7  2  0
  7  8  1  0
  8  9  2  0
  9 10  1  0
 10 11  2  0
 11 12  1  0
 12 13  2  0
 13 14  1  0
  8 15  1  0
 15 16  1  0
 16 17  1  0
 17 18  1  0
 18 19  1  0
 19 20  1  0
 20 21  2  0
 21 22  1  0
 22 23  2  0
 23 24  1  0
 23 25  1  0
 25 26  2  0
 26 27  1  0
 18 28  1  0
 28 29  1  0
 13  4  1  0
 29 15  1  0
 12  7  1  0
 26 20  1  0
M  END
>  <AAScore>  (1) 
56.42824864095341

>  <RootName>  (1) 
./4ZLY/04_DeltaGEst/trajectory_01/rank_01/lead_0213

$$$$
