confid_19
     RDKit          3D

 32 36  0  0  0  0  0  0  0  0999 V2000
   24.6900   26.1200   35.5300 N   0  0  0  0  0  0  0  0  0  0  0  0
   25.6600   25.6700   34.6600 C   0  0  0  0  0  0  0  0  0  0  0  0
   25.2400   25.0100   33.7200 O   0  0  0  0  0  0  0  0  0  0  0  0
   27.0300   26.2200   34.8800 C   0  0  0  0  0  0  0  0  0  0  0  0
   27.3500   26.7300   36.0700 N   0  0  0  0  0  0  0  0  0  0  0  0
   28.5700   27.1800   36.3300 N   0  0  0  0  0  0  0  0  0  0  0  0
   29.5300   27.1100   35.3900 C   0  0  0  0  0  0  0  0  0  0  0  0
   30.8300   27.5700   35.6500 C   0  0  0  0  0  0  0  0  0  0  0  0
   31.8500   27.5400   34.6900 C   0  0  0  0  0  0  0  0  0  0  0  0
   31.5100   27.1200   33.4000 C   0  0  0  0  0  0  0  0  0  0  0  0
   30.2200   26.6300   33.1100 C   0  0  0  0  0  0  0  0  0  0  0  0
   29.2400   26.6600   34.1000 C   0  0  0  0  0  0  0  0  0  0  0  0
   27.9300   26.2600   33.8100 C   0  0  0  0  0  0  0  0  0  0  0  0
   27.5200   25.7100   32.6100 N   0  0  0  0  0  0  0  0  0  0  0  0
   31.1720   28.1052   36.9906 C   0  0  0  0  0  0  0  0  0  0  0  0
   31.6982   29.4006   37.1156 C   0  0  0  0  0  0  0  0  0  0  0  0
   32.0156   29.9246   38.3781 C   0  0  0  0  0  0  0  0  0  0  0  0
   32.5284   31.3395   38.4988 C   0  0  0  0  0  0  0  0  0  0  0  0
   31.4651   32.2988   39.0646 C   0  0  0  0  0  0  0  0  0  0  0  0
   30.6027   31.6789   40.0926 N   0  0  0  0  0  0  0  0  0  0  0  0
   31.1754   30.9246   41.1705 C   0  0  0  0  0  0  0  0  0  0  0  0
   30.9459   31.2728   42.3591 O   0  0  0  0  0  0  0  0  0  0  0  0
   32.0428   29.7219   40.9124 C   0  0  0  0  0  0  0  0  0  0  0  0
   31.7882   29.1461   39.5365 C   0  0  0  0  0  0  0  0  0  0  0  0
   31.2713   27.8475   39.4038 C   0  0  0  0  0  0  0  0  0  0  0  0
   30.9719   27.3297   38.1427 C   0  0  0  0  0  0  0  0  0  0  0  0
   29.2005   31.8670   40.1079 N   0  0  0  0  0  0  0  0  0  0  0  0
   28.5518   31.1710   38.9759 C   0  0  0  0  0  0  0  0  0  0  0  0
   27.2160   31.8149   38.6073 C   0  0  0  0  0  0  0  0  0  0  0  0
   27.4307   33.2612   38.1542 C   0  0  0  0  0  0  0  0  0  0  0  0
   28.4301   34.0340   39.0392 C   0  0  0  0  0  0  0  0  0  0  0  0
   28.8363   33.2868   40.3236 C   0  0  0  0  0  0  0  0  0  0  0  0
  1  2  1  0
  2  3  2  0
  2  4  1  0
  4  5  2  0
  5  6  1  0
  6  7  2  0
  7  8  1  0
  8  9  2  0
  9 10  1  0
 10 11  2  0
 11 12  1  0
 12 13  2  0
 13 14  1  0
  8 15  1  0
 15 16  2  0
 16 17  1  0
 17 18  1  0
 18 19  1  0
 19 20  1  0
 20 21  1  0
 21 22  2  0
 21 23  1  0
 23 24  1  0
 24 25  1  0
 25 26  2  0
 20 27  1  0
 27 28  1  0
 28 29  1  0
 29 30  1  0
 30 31  1  0
 31 32  1  0
 13  4  1  0
 26 15  1  0
 32 27  1  0
 12  7  1  0
 24 17  2  0
M  END
>  <AAScore>  (1) 
-1.1655971032122108

>  <RootName>  (1) 
./4ZLY/04_DeltaGEst/trajectory_02/rank_01/lead_0266

$$$$
