confid_14
     RDKit          3D

 27 30  0  0  0  0  0  0  0  0999 V2000
   24.6900   26.1200   35.5300 N   0  0  0  0  0  0  0  0  0  0  0  0
   25.6600   25.6700   34.6600 C   0  0  0  0  0  0  0  0  0  0  0  0
   25.2400   25.0100   33.7200 O   0  0  0  0  0  0  0  0  0  0  0  0
   27.0300   26.2200   34.8800 C   0  0  0  0  0  0  0  0  0  0  0  0
   27.3500   26.7300   36.0700 N   0  0  0  0  0  0  0  0  0  0  0  0
   28.5700   27.1800   36.3300 N   0  0  0  0  0  0  0  0  0  0  0  0
   29.5300   27.1100   35.3900 C   0  0  0  0  0  0  0  0  0  0  0  0
   30.8300   27.5700   35.6500 C   0  0  0  0  0  0  0  0  0  0  0  0
   31.8500   27.5400   34.6900 C   0  0  0  0  0  0  0  0  0  0  0  0
   31.5100   27.1200   33.4000 C   0  0  0  0  0  0  0  0  0  0  0  0
   30.2200   26.6300   33.1100 C   0  0  0  0  0  0  0  0  0  0  0  0
   29.2400   26.6600   34.1000 C   0  0  0  0  0  0  0  0  0  0  0  0
   27.9300   26.2600   33.8100 C   0  0  0  0  0  0  0  0  0  0  0  0
   27.5200   25.7100   32.6100 N   0  0  0  0  0  0  0  0  0  0  0  0
   31.1834   28.0741   37.0010 C   0  0  0  0  0  0  0  0  0  0  0  0
   31.7372   29.3518   37.1545 C   0  0  0  0  0  0  0  0  0  0  0  0
   32.0846   29.8595   38.4220 C   0  0  0  0  0  0  0  0  0  0  0  0
   32.7235   31.2462   38.4185 C   0  0  0  0  0  0  0  0  0  0  0  0
   32.7177   31.9438   39.7164 N   0  0  0  0  0  0  0  0  0  0  0  0
   31.3567   32.1970   40.2365 C   0  0  0  0  0  0  0  0  0  0  0  0
   31.2242   31.5191   41.6039 C   0  0  0  0  0  0  0  0  0  0  0  0
   31.0242   30.1241   41.4876 O   0  0  0  0  0  0  0  0  0  0  0  0
   32.1727   29.4630   40.9861 C   0  0  0  0  0  0  0  0  0  0  0  0
   31.9056   29.0216   39.5657 C   0  0  0  0  0  0  0  0  0  0  0  0
   31.3400   27.7442   39.3935 C   0  0  0  0  0  0  0  0  0  0  0  0
   30.9915   27.2736   38.1303 C   0  0  0  0  0  0  0  0  0  0  0  0
   33.5038   33.1858   39.6376 C   0  0  0  0  0  0  0  0  0  0  0  0
  1  2  1  0
  2  3  2  0
  2  4  1  0
  4  5  2  0
  5  6  1  0
  6  7  2  0
  7  8  1  0
  8  9  2  0
  9 10  1  0
 10 11  2  0
 11 12  1  0
 12 13  2  0
 13 14  1  0
  8 15  1  0
 15 16  2  0
 16 17  1  0
 17 18  1  0
 18 19  1  0
 19 20  1  0
 20 21  1  0
 21 22  1  0
 22 23  1  0
 23 24  1  0
 24 25  1  0
 25 26  2  0
 19 27  1  0
 13  4  1  0
 26 15  1  0
 12  7  1  0
 24 17  2  0
M  END
>  <AAScore>  (1) 
4.5094955164246775

>  <RootName>  (1) 
./4ZLY/04_DeltaGEst/trajectory_02/rank_01/lead_0163

$$$$
