confid_0
     RDKit          3D

 29 32  0  0  0  0  0  0  0  0999 V2000
   24.2000   26.2400   35.6900 N   0  0  0  0  0  0  0  0  0  0  0  0
   24.8500   26.2800   34.4800 C   0  0  0  0  0  0  0  0  0  0  0  0
   24.3100   25.7400   33.5400 O   0  0  0  0  0  0  0  0  0  0  0  0
   26.1800   26.9700   34.4700 C   0  0  0  0  0  0  0  0  0  0  0  0
   26.6500   27.6000   35.5500 N   0  0  0  0  0  0  0  0  0  0  0  0
   27.7900   28.2700   35.6200 N   0  0  0  0  0  0  0  0  0  0  0  0
   28.5400   28.3000   34.5100 C   0  0  0  0  0  0  0  0  0  0  0  0
   29.7700   28.9400   34.5600 C   0  0  0  0  0  0  0  0  0  0  0  0
   30.7000   28.8900   33.5000 C   0  0  0  0  0  0  0  0  0  0  0  0
   30.3700   28.1400   32.3700 C   0  0  0  0  0  0  0  0  0  0  0  0
   29.1200   27.5200   32.2800 C   0  0  0  0  0  0  0  0  0  0  0  0
   28.2100   27.6100   33.3300 C   0  0  0  0  0  0  0  0  0  0  0  0
   26.9700   26.9700   33.3100 C   0  0  0  0  0  0  0  0  0  0  0  0
   26.5300   26.2400   32.2200 N   0  0  0  0  0  0  0  0  0  0  0  0
   22.7721   26.1552   35.8469 C   0  0  0  0  0  0  0  0  0  0  0  0
   22.2650   25.5832   36.9737 N   0  0  0  0  0  0  0  0  0  0  0  0
   20.9277   25.4857   37.1966 C   0  0  0  0  0  0  0  0  0  0  0  0
   20.0234   25.9901   36.2605 C   0  0  0  0  0  0  0  0  0  0  0  0
   18.6490   25.8953   36.4945 O   0  0  0  0  0  0  0  0  0  0  0  0
   17.6505   26.2488   35.5261 C   0  0  2  0  0  0  0  0  0  0  0  0
   18.1607   27.4521   34.6853 C   0  0  0  0  0  0  0  0  0  0  0  0
   17.3083   27.7156   33.6275 F   0  0  0  0  0  0  0  0  0  0  0  0
   18.2427   28.5783   35.4880 F   0  0  0  0  0  0  0  0  0  0  0  0
   19.5439   27.1485   34.0848 C   0  0  0  0  0  0  0  0  0  0  0  0
   20.5081   26.6208   35.1092 C   0  0  0  0  0  0  0  0  0  0  0  0
   21.8902   26.6973   34.8942 C   0  0  0  0  0  0  0  0  0  0  0  0
   16.3743   26.5495   36.2330 N   0  0  0  0  0  0  0  0  0  0  0  0
   15.2559   26.7788   35.2963 C   0  0  0  0  0  0  0  0  0  0  0  0
   16.0147   25.4400   37.1380 C   0  0  0  0  0  0  0  0  0  0  0  0
  1  2  1  0
  2  3  2  0
  2  4  1  0
  4  5  2  0
  5  6  1  0
  6  7  2  0
  7  8  1  0
  8  9  2  0
  9 10  1  0
 10 11  2  0
 11 12  1  0
 12 13  2  0
 13 14  1  0
  1 15  1  0
 15 16  2  0
 16 17  1  0
 17 18  2  0
 18 19  1  0
 19 20  1  0
 20 21  1  0
 21 22  1  0
 21 23  1  0
 21 24  1  0
 24 25  1  0
 25 26  2  0
 20 27  1  1
 27 28  1  0
 27 29  1  0
 13  4  1  0
 26 15  1  0
 12  7  1  0
 25 18  1  0
M  END
>  <AAScore>  (1) 
180.26566752379776

>  <RootName>  (1) 
./4ZLY/04_DeltaGEst/trajectory_04/rank_00/lead_0192

$$$$
