confid_9
     RDKit          3D

 30 32  0  0  0  0  0  0  0  0999 V2000
   24.5700   26.8800   35.5900 N   0  0  0  0  0  0  0  0  0  0  0  0
   25.5000   26.4000   34.6900 C   0  0  0  0  0  0  0  0  0  0  0  0
   25.1700   25.5200   33.9100 O   0  0  0  0  0  0  0  0  0  0  0  0
   26.8400   27.0200   34.7400 C   0  0  0  0  0  0  0  0  0  0  0  0
   27.3800   27.2800   35.9400 N   0  0  0  0  0  0  0  0  0  0  0  0
   28.6200   27.7400   36.0300 N   0  0  0  0  0  0  0  0  0  0  0  0
   29.3800   28.0000   34.9600 C   0  0  0  0  0  0  0  0  0  0  0  0
   30.6700   28.5000   35.1300 C   0  0  0  0  0  0  0  0  0  0  0  0
   31.5400   28.6100   34.0300 C   0  0  0  0  0  0  0  0  0  0  0  0
   31.0900   28.2200   32.7700 C   0  0  0  0  0  0  0  0  0  0  0  0
   29.8000   27.7000   32.6000 C   0  0  0  0  0  0  0  0  0  0  0  0
   28.9600   27.5500   33.7100 C   0  0  0  0  0  0  0  0  0  0  0  0
   27.6600   27.0300   33.5900 C   0  0  0  0  0  0  0  0  0  0  0  0
   27.1600   26.7400   32.3400 N   0  0  0  0  0  0  0  0  0  0  0  0
   33.1575   29.2717   34.2466 S   0  0  0  0  0  6  0  0  0  0  0  0
   33.7411   28.7329   35.5230 O   0  0  0  0  0  0  0  0  0  0  0  0
   34.0390   28.8544   33.1020 O   0  0  0  0  0  0  0  0  0  0  0  0
   33.0670   31.0637   34.3303 C   0  0  2  0  0  0  0  0  0  0  0  0
   32.3328   31.6101   33.0901 C   0  0  0  0  0  0  0  0  0  0  0  0
   32.6453   33.0401   32.8868 N   0  0  0  0  0  0  0  0  0  0  0  0
   34.0597   33.2231   32.4557 C   0  0  2  0  0  0  0  0  0  0  0  0
   35.0276   32.2330   33.1700 C   0  0  0  0  0  0  0  0  0  0  0  0
   34.4793   31.6923   34.5075 C   0  0  1  0  0  0  0  0  0  0  0  0
   34.4717   32.7744   35.5994 C   0  0  0  0  0  0  0  0  0  0  0  0
   34.5154   34.6749   32.7011 C   0  0  0  0  0  0  0  0  0  0  0  0
   31.6817   33.6464   31.9328 C   0  0  0  0  0  0  0  0  0  0  0  0
   30.6386   34.4632   32.6932 C   0  0  0  0  0  0  0  0  0  0  0  0
   29.7722   35.0581   31.7946 F   0  0  0  0  0  0  0  0  0  0  0  0
   29.9134   33.6455   33.5405 F   0  0  0  0  0  0  0  0  0  0  0  0
   31.2625   35.4488   33.4367 F   0  0  0  0  0  0  0  0  0  0  0  0
  1  2  1  0
  2  3  2  0
  2  4  1  0
  4  5  2  0
  5  6  1  0
  6  7  2  0
  7  8  1  0
  8  9  2  0
  9 10  1  0
 10 11  2  0
 11 12  1  0
 12 13  2  0
 13 14  1  0
  9 15  1  0
 15 16  2  0
 15 17  2  0
 18 15  1  6
 18 19  1  0
 19 20  1  0
 20 21  1  0
 21 22  1  0
 22 23  1  0
 23 24  1  1
 21 25  1  1
 20 26  1  0
 26 27  1  0
 27 28  1  0
 27 29  1  0
 27 30  1  0
 13  4  1  0
 23 18  1  0
 12  7  1  0
M  END
>  <AAScore>  (1) 
35.15140323871736

>  <RootName>  (1) 
./4ZLY/04_DeltaGEst/trajectory_05/rank_01/lead_0011

$$$$
