confid_12
     RDKit          3D

 29 32  0  0  0  0  0  0  0  0999 V2000
   24.6900   26.1200   35.5300 N   0  0  0  0  0  0  0  0  0  0  0  0
   25.6600   25.6700   34.6600 C   0  0  0  0  0  0  0  0  0  0  0  0
   25.2400   25.0100   33.7200 O   0  0  0  0  0  0  0  0  0  0  0  0
   27.0300   26.2200   34.8800 C   0  0  0  0  0  0  0  0  0  0  0  0
   27.3500   26.7300   36.0700 N   0  0  0  0  0  0  0  0  0  0  0  0
   28.5700   27.1800   36.3300 N   0  0  0  0  0  0  0  0  0  0  0  0
   29.5300   27.1100   35.3900 C   0  0  0  0  0  0  0  0  0  0  0  0
   30.8300   27.5700   35.6500 C   0  0  0  0  0  0  0  0  0  0  0  0
   31.8500   27.5400   34.6900 C   0  0  0  0  0  0  0  0  0  0  0  0
   31.5100   27.1200   33.4000 C   0  0  0  0  0  0  0  0  0  0  0  0
   30.2200   26.6300   33.1100 C   0  0  0  0  0  0  0  0  0  0  0  0
   29.2400   26.6600   34.1000 C   0  0  0  0  0  0  0  0  0  0  0  0
   27.9300   26.2600   33.8100 C   0  0  0  0  0  0  0  0  0  0  0  0
   27.5200   25.7100   32.6100 N   0  0  0  0  0  0  0  0  0  0  0  0
   31.1936   28.0713   37.0006 C   0  0  0  0  0  0  0  0  0  0  0  0
   32.0464   29.1485   37.2623 C   0  0  0  0  0  0  0  0  0  0  0  0
   32.2480   29.3681   38.6300 C   0  0  0  0  0  0  0  0  0  0  0  0
   33.0248   30.5056   39.2227 C   0  0  0  0  0  0  0  0  0  0  0  0
   33.4941   30.1612   40.6487 C   0  0  0  0  0  0  0  0  0  0  0  0
   32.4000   29.5705   41.4413 N   0  0  0  0  0  0  0  0  0  0  0  0
   32.0840   30.1086   42.7370 C   0  0  0  0  0  0  0  0  0  0  0  0
   30.9013   30.4775   42.9735 O   0  0  0  0  0  0  0  0  0  0  0  0
   33.0871   30.2146   43.7670 N   0  0  0  0  0  0  0  0  0  0  0  0
   32.8157   31.0366   44.9494 C   0  0  0  0  0  0  0  0  0  0  0  0
   34.3205   29.4266   43.6863 C   0  0  0  0  0  0  0  0  0  0  0  0
   31.5972   28.5585   40.8618 N   0  0  0  0  0  0  0  0  0  0  0  0
   30.7730   27.6690   41.6836 C   0  0  0  0  0  0  0  0  0  0  0  0
   31.5543   28.4868   39.4318 C   0  0  0  0  0  0  0  0  0  0  0  0
   30.6950   27.4025   38.4763 S   0  0  0  0  0  0  0  0  0  0  0  0
  1  2  1  0
  2  3  2  0
  2  4  1  0
  4  5  2  0
  5  6  1  0
  6  7  2  0
  7  8  1  0
  8  9  2  0
  9 10  1  0
 10 11  2  0
 11 12  1  0
 12 13  2  0
 13 14  1  0
  8 15  1  0
 15 16  2  0
 16 17  1  0
 17 18  1  0
 18 19  1  0
 19 20  1  0
 20 21  1  0
 21 22  2  0
 21 23  1  0
 23 24  1  0
 23 25  1  0
 20 26  1  0
 26 27  1  0
 26 28  1  0
 28 29  1  0
 13  4  1  0
 29 15  1  0
 12  7  1  0
 28 17  2  0
M  END
>  <AAScore>  (1) 
1124.558051847058

>  <RootName>  (1) 
./4ZLY/04_DeltaGEst/trajectory_02/rank_01/lead_0472

$$$$
