confid_7
     RDKit          3D

 29 33  0  0  0  0  0  0  0  0999 V2000
   25.3300   26.2600   34.7600 N   0  0  0  0  0  0  0  0  0  0  0  0
   26.1200   25.9200   33.6900 C   0  0  0  0  0  0  0  0  0  0  0  0
   25.6300   25.1100   32.9400 O   0  0  0  0  0  0  0  0  0  0  0  0
   27.5200   26.3800   33.4600 C   0  0  0  0  0  0  0  0  0  0  0  0
   28.1600   26.6300   34.6100 N   0  0  0  0  0  0  0  0  0  0  0  0
   29.4800   26.8500   34.5700 N   0  0  0  0  0  0  0  0  0  0  0  0
   30.1900   26.7800   33.4400 C   0  0  0  0  0  0  0  0  0  0  0  0
   31.5600   27.0500   33.5000 C   0  0  0  0  0  0  0  0  0  0  0  0
   32.2700   27.2400   32.3100 C   0  0  0  0  0  0  0  0  0  0  0  0
   31.6100   27.2500   31.0800 C   0  0  0  0  0  0  0  0  0  0  0  0
   30.2700   26.8700   31.0600 C   0  0  0  0  0  0  0  0  0  0  0  0
   29.5100   26.6900   32.2300 C   0  0  0  0  0  0  0  0  0  0  0  0
   28.1400   26.4100   32.2000 C   0  0  0  0  0  0  0  0  0  0  0  0
   27.4300   26.1300   31.0500 N   0  0  0  0  0  0  0  0  0  0  0  0
   27.4252   25.0963   29.9963 C   0  0  0  0  0  0  0  0  0  0  0  0
   26.2984   25.6967   29.1945 C   0  0  0  0  0  0  0  0  0  0  0  0
   26.3233   26.7350   30.2820 C   0  0  0  0  0  0  0  0  0  0  0  0
   26.7053   26.2236   27.7974 C   0  0  0  0  0  0  0  0  0  0  0  0
   26.4487   25.1755   26.6966 C   0  0  0  0  0  0  0  0  0  0  0  0
   26.3515   23.8230   27.2802 N   0  0  0  0  0  0  0  0  0  0  0  0
   25.1478   23.6816   28.1305 C   0  0  0  0  0  0  0  0  0  0  0  0
   25.0236   24.8303   29.1581 C   0  0  0  0  0  0  0  0  0  0  0  0
   26.4753   22.7440   26.2759 C   0  0  0  0  0  0  0  0  0  0  0  0
   25.3992   22.7751   25.2171 C   0  0  0  0  0  0  0  0  0  0  0  0
   24.2485   21.9805   25.3368 C   0  0  0  0  0  0  0  0  0  0  0  0
   23.2703   22.0367   24.3420 C   0  0  0  0  0  0  0  0  0  0  0  0
   23.4466   22.8757   23.2407 C   0  0  0  0  0  0  0  0  0  0  0  0
   24.6054   23.6497   23.1508 C   0  0  0  0  0  0  0  0  0  0  0  0
   25.5468   23.5827   24.1298 N   0  0  0  0  0  0  0  0  0  0  0  0
  1  2  1  0
  2  3  2  0
  2  4  1  0
  4  5  2  0
  5  6  1  0
  6  7  2  0
  7  8  1  0
  8  9  2  0
  9 10  1  0
 10 11  2  0
 11 12  1  0
 12 13  2  0
 13 14  1  0
 14 15  1  0
 15 16  1  0
 16 17  1  0
 16 18  1  0
 18 19  1  0
 19 20  1  0
 20 21  1  0
 21 22  1  0
 20 23  1  0
 23 24  1  0
 24 25  2  0
 25 26  1  0
 26 27  2  0
 27 28  1  0
 28 29  2  0
 13  4  1  0
 17 14  1  0
 29 24  1  0
 12  7  1  0
 22 16  1  0
M  END
>  <AAScore>  (1) 
61.9424005580284

>  <RootName>  (1) 
./4ZLY/04_DeltaGEst/trajectory_03/rank_01/lead_0215

$$$$
