confid_18
     RDKit          3D

 25 27  0  0  0  0  0  0  0  0999 V2000
   24.5700   26.8800   35.5900 N   0  0  0  0  0  0  0  0  0  0  0  0
   25.5000   26.4000   34.6900 C   0  0  0  0  0  0  0  0  0  0  0  0
   25.1700   25.5200   33.9100 O   0  0  0  0  0  0  0  0  0  0  0  0
   26.8400   27.0200   34.7400 C   0  0  0  0  0  0  0  0  0  0  0  0
   27.3800   27.2800   35.9400 N   0  0  0  0  0  0  0  0  0  0  0  0
   28.6200   27.7400   36.0300 N   0  0  0  0  0  0  0  0  0  0  0  0
   29.3800   28.0000   34.9600 C   0  0  0  0  0  0  0  0  0  0  0  0
   30.6700   28.5000   35.1300 C   0  0  0  0  0  0  0  0  0  0  0  0
   31.5400   28.6100   34.0300 C   0  0  0  0  0  0  0  0  0  0  0  0
   31.0900   28.2200   32.7700 C   0  0  0  0  0  0  0  0  0  0  0  0
   29.8000   27.7000   32.6000 C   0  0  0  0  0  0  0  0  0  0  0  0
   28.9600   27.5500   33.7100 C   0  0  0  0  0  0  0  0  0  0  0  0
   27.6600   27.0300   33.5900 C   0  0  0  0  0  0  0  0  0  0  0  0
   27.1600   26.7400   32.3400 N   0  0  0  0  0  0  0  0  0  0  0  0
   33.1570   29.2730   34.2440 S   0  0  0  0  0  6  0  0  0  0  0  0
   34.0386   28.8239   33.1113 O   0  0  0  0  0  0  0  0  0  0  0  0
   33.7311   28.7591   35.5350 O   0  0  0  0  0  0  0  0  0  0  0  0
   33.0543   31.0670   34.2860 C   0  0  1  0  0  0  0  0  0  0  0  0
   34.3301   31.7371   34.8680 C   0  0  2  0  0  0  0  0  0  0  0  0
   34.1612   33.2726   34.8787 C   0  0  0  0  0  0  0  0  0  0  0  0
   33.7968   33.8315   33.4869 C   0  0  2  0  0  0  0  0  0  0  0  0
   33.5991   35.3498   33.5555 C   0  0  0  0  0  0  0  0  0  0  0  0
   32.5278   33.1493   32.9433 C   0  0  0  0  0  0  0  0  0  0  0  0
   32.6874   31.6252   32.8986 C   0  0  0  0  0  0  0  0  0  0  0  0
   35.6369   31.3259   34.1608 C   0  0  0  0  0  0  0  0  0  0  0  0
  1  2  1  0
  2  3  2  0
  2  4  1  0
  4  5  2  0
  5  6  1  0
  6  7  2  0
  7  8  1  0
  8  9  2  0
  9 10  1  0
 10 11  2  0
 11 12  1  0
 12 13  2  0
 13 14  1  0
  9 15  1  0
 15 16  2  0
 15 17  2  0
 18 15  1  6
 18 19  1  0
 19 20  1  0
 20 21  1  0
 21 22  1  1
 21 23  1  0
 23 24  1  0
 19 25  1  6
 13  4  1  0
 24 18  1  0
 12  7  1  0
M  END
>  <AAScore>  (1) 
-6.690881871046433

>  <RootName>  (1) 
./4ZLY/04_DeltaGEst/trajectory_05/rank_01/lead_0474

$$$$
