confid_14
     RDKit          3D

 28 31  0  0  0  0  0  0  0  0999 V2000
   24.4800   26.1000   36.1300 N   0  0  0  0  0  0  0  0  0  0  0  0
   25.2500   26.2500   34.9900 C   0  0  0  0  0  0  0  0  0  0  0  0
   24.7400   25.7600   33.9900 O   0  0  0  0  0  0  0  0  0  0  0  0
   26.5900   26.8900   34.9600 C   0  0  0  0  0  0  0  0  0  0  0  0
   27.0600   27.2400   36.1600 N   0  0  0  0  0  0  0  0  0  0  0  0
   28.3000   27.7100   36.2400 N   0  0  0  0  0  0  0  0  0  0  0  0
   29.0500   27.9600   35.1500 C   0  0  0  0  0  0  0  0  0  0  0  0
   30.3400   28.4900   35.2600 C   0  0  0  0  0  0  0  0  0  0  0  0
   31.1100   28.8200   34.1400 C   0  0  0  0  0  0  0  0  0  0  0  0
   30.5200   28.6700   32.8800 C   0  0  0  0  0  0  0  0  0  0  0  0
   29.2900   28.0200   32.7700 C   0  0  0  0  0  0  0  0  0  0  0  0
   28.5200   27.7100   33.8900 C   0  0  0  0  0  0  0  0  0  0  0  0
   27.2700   27.0800   33.7600 C   0  0  0  0  0  0  0  0  0  0  0  0
   26.7500   26.8800   32.4900 N   0  0  0  0  0  0  0  0  0  0  0  0
   23.3725   25.1824   36.2989 C   0  0  0  0  0  0  0  0  0  0  0  0
   23.1851   24.1758   35.3990 N   0  0  0  0  0  0  0  0  0  0  0  0
   22.1975   23.2569   35.5231 C   0  0  0  0  0  0  0  0  0  0  0  0
   21.3506   23.2820   36.6348 C   0  0  0  0  0  0  0  0  0  0  0  0
   20.2387   22.2731   36.7779 C   0  0  0  0  0  0  0  0  0  0  0  0
   18.9122   22.8834   36.5226 N   0  0  0  0  0  0  0  0  0  0  0  0
   17.8419   21.9132   36.8054 C   0  0  0  0  0  0  0  0  0  0  0  0
   18.6701   24.1765   37.2198 C   0  0  0  0  0  0  0  0  0  0  0  0
   19.1940   24.2223   38.6750 C   0  0  0  0  0  0  0  0  0  0  0  0
   20.6650   24.2805   38.7740 N   0  0  0  0  0  0  0  0  0  0  0  0
   21.2611   24.0799   40.0981 C   0  0  0  0  0  0  0  0  0  0  0  0
   21.5196   24.2825   37.6070 C   0  0  0  0  0  0  0  0  0  0  0  0
   22.5034   25.2838   37.4159 C   0  0  0  0  0  0  0  0  0  0  0  0
   22.6083   26.4534   38.3670 C   0  0  0  0  0  0  0  0  0  0  0  0
  1  2  1  0
  2  3  2  0
  2  4  1  0
  4  5  2  0
  5  6  1  0
  6  7  2  0
  7  8  1  0
  8  9  2  0
  9 10  1  0
 10 11  2  0
 11 12  1  0
 12 13  2  0
 13 14  1  0
  1 15  1  0
 15 16  2  0
 16 17  1  0
 17 18  2  0
 18 19  1  0
 19 20  1  0
 20 21  1  0
 20 22  1  0
 22 23  1  0
 23 24  1  0
 24 25  1  0
 24 26  1  0
 26 27  2  0
 27 28  1  0
 13  4  1  0
 27 15  1  0
 12  7  1  0
 26 18  1  0
M  END
>  <AAScore>  (1) 
4969.723279529001

>  <RootName>  (1) 
./4ZLY/04_DeltaGEst/trajectory_00/rank_00/lead_0238

$$$$
