confid_13
     RDKit          3D

 27 30  0  0  0  0  0  0  0  0999 V2000
   25.3300   26.2600   34.7600 N   0  0  0  0  0  0  0  0  0  0  0  0
   26.1200   25.9200   33.6900 C   0  0  0  0  0  0  0  0  0  0  0  0
   25.6300   25.1100   32.9400 O   0  0  0  0  0  0  0  0  0  0  0  0
   27.5200   26.3800   33.4600 C   0  0  0  0  0  0  0  0  0  0  0  0
   28.1600   26.6300   34.6100 N   0  0  0  0  0  0  0  0  0  0  0  0
   29.4800   26.8500   34.5700 N   0  0  0  0  0  0  0  0  0  0  0  0
   30.1900   26.7800   33.4400 C   0  0  0  0  0  0  0  0  0  0  0  0
   31.5600   27.0500   33.5000 C   0  0  0  0  0  0  0  0  0  0  0  0
   32.2700   27.2400   32.3100 C   0  0  0  0  0  0  0  0  0  0  0  0
   31.6100   27.2500   31.0800 C   0  0  0  0  0  0  0  0  0  0  0  0
   30.2700   26.8700   31.0600 C   0  0  0  0  0  0  0  0  0  0  0  0
   29.5100   26.6900   32.2300 C   0  0  0  0  0  0  0  0  0  0  0  0
   28.1400   26.4100   32.2000 C   0  0  0  0  0  0  0  0  0  0  0  0
   27.4300   26.1300   31.0500 N   0  0  0  0  0  0  0  0  0  0  0  0
   23.9026   26.0953   34.8492 C   0  0  0  0  0  0  0  0  0  0  0  0
   23.2282   26.3171   36.0096 N   0  0  0  0  0  0  0  0  0  0  0  0
   21.9061   26.1167   35.8020 C   0  0  0  0  0  0  0  0  0  0  0  0
   20.7525   26.1936   36.7194 C   0  0  0  0  0  0  0  0  0  0  0  0
   19.6324   25.8302   35.8333 N   0  0  0  0  0  0  0  0  0  0  0  0
   18.2666   25.7769   36.2813 C   0  0  0  0  0  0  0  0  0  0  0  0
   17.9930   26.0787   37.4749 O   0  0  0  0  0  0  0  0  0  0  0  0
   17.1444   25.4143   35.3468 C   0  0  2  0  0  0  0  0  0  0  0  0
   16.5598   26.6655   34.7027 C   0  0  0  0  0  0  0  0  0  0  0  0
   16.1495   24.7541   36.0474 F   0  0  0  0  0  0  0  0  0  0  0  0
   20.0773   25.5410   34.4584 C   0  0  0  0  0  0  0  0  0  0  0  0
   21.5301   25.7646   34.5625 C   0  0  0  0  0  0  0  0  0  0  0  0
   22.8616   25.6631   33.5556 S   0  0  0  0  0  0  0  0  0  0  0  0
  1  2  1  0
  2  3  2  0
  2  4  1  0
  4  5  2  0
  5  6  1  0
  6  7  2  0
  7  8  1  0
  8  9  2  0
  9 10  1  0
 10 11  2  0
 11 12  1  0
 12 13  2  0
 13 14  1  0
  1 15  1  0
 15 16  2  0
 16 17  1  0
 17 18  1  0
 18 19  1  0
 19 20  1  0
 20 21  2  0
 20 22  1  0
 22 23  1  1
 22 24  1  0
 19 25  1  0
 25 26  1  0
 26 27  1  0
 13  4  1  0
 27 15  1  0
 12  7  1  0
 26 17  2  0
M  END
>  <AAScore>  (1) 
2404.079982076332

>  <RootName>  (1) 
./4ZLY/04_DeltaGEst/trajectory_03/rank_00/lead_0399

$$$$
