confid_1
     RDKit          3D

 27 30  0  0  0  0  0  0  0  0999 V2000
   24.5500   26.3900   36.2500 N   0  0  0  0  0  0  0  0  0  0  0  0
   25.6000   26.1300   35.4000 C   0  0  0  0  0  0  0  0  0  0  0  0
   25.4300   25.4300   34.4200 O   0  0  0  0  0  0  0  0  0  0  0  0
   26.9800   26.6300   35.7100 C   0  0  0  0  0  0  0  0  0  0  0  0
   27.3200   26.8200   36.9800 N   0  0  0  0  0  0  0  0  0  0  0  0
   28.4700   27.4000   37.3100 N   0  0  0  0  0  0  0  0  0  0  0  0
   29.4000   27.6300   36.3700 C   0  0  0  0  0  0  0  0  0  0  0  0
   30.6600   28.0500   36.8000 C   0  0  0  0  0  0  0  0  0  0  0  0
   31.5700   28.3600   35.7800 C   0  0  0  0  0  0  0  0  0  0  0  0
   31.3700   28.1000   34.4300 C   0  0  0  0  0  0  0  0  0  0  0  0
   30.1200   27.5900   34.0500 C   0  0  0  0  0  0  0  0  0  0  0  0
   29.1500   27.3400   35.0300 C   0  0  0  0  0  0  0  0  0  0  0  0
   27.8800   26.8900   34.6600 C   0  0  0  0  0  0  0  0  0  0  0  0
   27.4800   26.6100   33.3700 N   0  0  0  0  0  0  0  0  0  0  0  0
   23.1846   26.1177   35.9051 C   0  0  0  0  0  0  0  0  0  0  0  0
   22.4038   25.3309   36.6712 N   0  0  0  0  0  0  0  0  0  0  0  0
   21.2338   25.2905   36.0127 C   0  0  0  0  0  0  0  0  0  0  0  0
   21.3157   26.0589   34.8702 C   0  0  0  0  0  0  0  0  0  0  0  0
   20.1727   26.2179   33.8998 C   0  0  0  0  0  0  0  0  0  0  0  0
   20.3980   25.4770   32.5726 C   0  0  0  0  0  0  0  0  0  0  0  0
   21.7775   25.6660   32.0724 N   0  0  0  0  0  0  0  0  0  0  0  0
   22.2624   24.4443   31.4093 C   0  0  0  0  0  0  0  0  0  0  0  0
   21.9112   26.8170   31.1528 C   0  0  0  0  0  0  0  0  0  0  0  0
   21.5737   28.1740   31.8030 C   0  0  0  0  0  0  0  0  0  0  0  0
   22.2615   28.5379   33.1523 C   0  0  0  0  0  0  0  0  0  0  0  0
   23.1944   27.4921   33.7994 C   0  0  0  0  0  0  0  0  0  0  0  0
   22.5560   26.6158   34.8079 N   0  0  0  0  0  0  0  0  0  0  0  0
  1  2  1  0
  2  3  2  0
  2  4  1  0
  4  5  2  0
  5  6  1  0
  6  7  2  0
  7  8  1  0
  8  9  2  0
  9 10  1  0
 10 11  2  0
 11 12  1  0
 12 13  2  0
 13 14  1  0
  1 15  1  0
 15 16  2  0
 16 17  1  0
 17 18  2  0
 18 19  1  0
 19 20  1  0
 20 21  1  0
 21 22  1  0
 21 23  1  0
 23 24  1  0
 24 25  1  0
 25 26  1  0
 26 27  1  0
 13  4  1  0
 27 15  1  0
 12  7  1  0
 27 18  1  0
M  END
>  <AAScore>  (1) 
7255.89278141988

>  <RootName>  (1) 
./4ZLY/04_DeltaGEst/trajectory_01/rank_00/lead_0127

$$$$
