confid_6
     RDKit          3D

 27 30  0  0  0  0  0  0  0  0999 V2000
   24.6900   26.1200   35.5300 N   0  0  0  0  0  0  0  0  0  0  0  0
   25.6600   25.6700   34.6600 C   0  0  0  0  0  0  0  0  0  0  0  0
   25.2400   25.0100   33.7200 O   0  0  0  0  0  0  0  0  0  0  0  0
   27.0300   26.2200   34.8800 C   0  0  0  0  0  0  0  0  0  0  0  0
   27.3500   26.7300   36.0700 N   0  0  0  0  0  0  0  0  0  0  0  0
   28.5700   27.1800   36.3300 N   0  0  0  0  0  0  0  0  0  0  0  0
   29.5300   27.1100   35.3900 C   0  0  0  0  0  0  0  0  0  0  0  0
   30.8300   27.5700   35.6500 C   0  0  0  0  0  0  0  0  0  0  0  0
   31.8500   27.5400   34.6900 C   0  0  0  0  0  0  0  0  0  0  0  0
   31.5100   27.1200   33.4000 C   0  0  0  0  0  0  0  0  0  0  0  0
   30.2200   26.6300   33.1100 C   0  0  0  0  0  0  0  0  0  0  0  0
   29.2400   26.6600   34.1000 C   0  0  0  0  0  0  0  0  0  0  0  0
   27.9300   26.2600   33.8100 C   0  0  0  0  0  0  0  0  0  0  0  0
   27.5200   25.7100   32.6100 N   0  0  0  0  0  0  0  0  0  0  0  0
   23.3261   26.3715   35.1525 C   0  0  0  0  0  0  0  0  0  0  0  0
   22.9601   26.5721   33.9262 N   0  0  0  0  0  0  0  0  0  0  0  0
   21.5729   26.8733   33.9502 C   0  0  0  0  0  0  0  0  0  0  0  0
   21.1079   26.8701   35.1881 C   0  0  0  0  0  0  0  0  0  0  0  0
   19.7025   27.1841   35.5969 C   0  0  0  0  0  0  0  0  0  0  0  0
   19.6138   27.2431   37.0098 O   0  0  0  0  0  0  0  0  0  0  0  0
   19.4982   25.9648   37.6303 C   0  0  1  0  0  0  0  0  0  0  0  0
   18.0375   25.4949   37.6300 C   0  0  0  0  0  0  0  0  0  0  0  0
   20.4453   24.8609   37.0822 C   0  0  0  0  0  0  0  0  0  0  0  0
   21.9334   25.2735   37.0064 C   0  0  0  0  0  0  0  0  0  0  0  0
   22.3952   25.5126   38.2907 F   0  0  0  0  0  0  0  0  0  0  0  0
   22.6373   24.1861   36.5088 F   0  0  0  0  0  0  0  0  0  0  0  0
   22.2090   26.5428   36.1421 C   0  0  1  0  0  0  0  0  0  0  0  0
  1  2  1  0
  2  3  2  0
  2  4  1  0
  4  5  2  0
  5  6  1  0
  6  7  2  0
  7  8  1  0
  8  9  2  0
  9 10  1  0
 10 11  2  0
 11 12  1  0
 12 13  2  0
 13 14  1  0
  1 15  1  0
 15 16  2  0
 16 17  1  0
 17 18  2  0
 18 19  1  0
 19 20  1  0
 20 21  1  0
 21 22  1  6
 21 23  1  0
 23 24  1  0
 24 25  1  0
 24 26  1  0
 27 24  1  6
 13  4  1  0
 27 15  1  0
 12  7  1  0
 27 18  1  0
M  END
>  <AAScore>  (1) 
838.2013680670725

>  <RootName>  (1) 
./4ZLY/04_DeltaGEst/trajectory_02/rank_00/lead_0492

$$$$
