confid_10
     RDKit          3D

 27 30  0  0  0  0  0  0  0  0999 V2000
   24.4800   26.1000   36.1300 N   0  0  0  0  0  0  0  0  0  0  0  0
   25.2500   26.2500   34.9900 C   0  0  0  0  0  0  0  0  0  0  0  0
   24.7400   25.7600   33.9900 O   0  0  0  0  0  0  0  0  0  0  0  0
   26.5900   26.8900   34.9600 C   0  0  0  0  0  0  0  0  0  0  0  0
   27.0600   27.2400   36.1600 N   0  0  0  0  0  0  0  0  0  0  0  0
   28.3000   27.7100   36.2400 N   0  0  0  0  0  0  0  0  0  0  0  0
   29.0500   27.9600   35.1500 C   0  0  0  0  0  0  0  0  0  0  0  0
   30.3400   28.4900   35.2600 C   0  0  0  0  0  0  0  0  0  0  0  0
   31.1100   28.8200   34.1400 C   0  0  0  0  0  0  0  0  0  0  0  0
   30.5200   28.6700   32.8800 C   0  0  0  0  0  0  0  0  0  0  0  0
   29.2900   28.0200   32.7700 C   0  0  0  0  0  0  0  0  0  0  0  0
   28.5200   27.7100   33.8900 C   0  0  0  0  0  0  0  0  0  0  0  0
   27.2700   27.0800   33.7600 C   0  0  0  0  0  0  0  0  0  0  0  0
   26.7500   26.8800   32.4900 N   0  0  0  0  0  0  0  0  0  0  0  0
   23.0443   26.0316   36.1578 C   0  0  0  0  0  0  0  0  0  0  0  0
   22.3568   25.7106   37.2748 N   0  0  0  0  0  0  0  0  0  0  0  0
   21.0105   25.7509   37.0784 C   0  0  0  0  0  0  0  0  0  0  0  0
   20.0593   25.4585   38.2004 C   0  0  0  0  0  0  0  0  0  0  0  0
   18.8909   24.7254   37.6993 N   0  0  0  0  0  0  0  0  0  0  0  0
   18.8978   23.2805   37.7210 C   0  0  0  0  0  0  0  0  0  0  0  0
   19.9917   22.6601   37.8179 O   0  0  0  0  0  0  0  0  0  0  0  0
   17.6329   22.4843   37.6098 C   0  0  0  0  0  0  0  0  0  0  0  0
   17.7403   25.4809   37.1739 C   0  0  0  0  0  0  0  0  0  0  0  0
   18.1731   26.6521   36.2738 C   0  0  0  0  0  0  0  0  0  0  0  0
   19.2220   26.2367   35.2313 C   0  0  0  0  0  0  0  0  0  0  0  0
   20.6167   26.1590   35.7953 C   0  0  0  0  0  0  0  0  0  0  0  0
   22.0080   26.4167   34.8847 S   0  0  0  0  0  0  0  0  0  0  0  0
  1  2  1  0
  2  3  2  0
  2  4  1  0
  4  5  2  0
  5  6  1  0
  6  7  2  0
  7  8  1  0
  8  9  2  0
  9 10  1  0
 10 11  2  0
 11 12  1  0
 12 13  2  0
 13 14  1  0
  1 15  1  0
 15 16  2  0
 16 17  1  0
 17 18  1  0
 18 19  1  0
 19 20  1  0
 20 21  2  0
 20 22  1  0
 19 23  1  0
 23 24  1  0
 24 25  1  0
 25 26  1  0
 26 27  1  0
 13  4  1  0
 27 15  1  0
 12  7  1  0
 26 17  2  0
M  END
>  <AAScore>  (1) 
1177.2747827477158

>  <RootName>  (1) 
./4ZLY/04_DeltaGEst/trajectory_00/rank_01/lead_0281

$$$$
