confid_17
     RDKit          3D

 30 34  0  0  0  0  0  0  0  0999 V2000
   24.5500   26.3900   36.2500 N   0  0  0  0  0  0  0  0  0  0  0  0
   25.6000   26.1300   35.4000 C   0  0  0  0  0  0  0  0  0  0  0  0
   25.4300   25.4300   34.4200 O   0  0  0  0  0  0  0  0  0  0  0  0
   26.9800   26.6300   35.7100 C   0  0  0  0  0  0  0  0  0  0  0  0
   27.3200   26.8200   36.9800 N   0  0  0  0  0  0  0  0  0  0  0  0
   28.4700   27.4000   37.3100 N   0  0  0  0  0  0  0  0  0  0  0  0
   29.4000   27.6300   36.3700 C   0  0  0  0  0  0  0  0  0  0  0  0
   30.6600   28.0500   36.8000 C   0  0  0  0  0  0  0  0  0  0  0  0
   31.5700   28.3600   35.7800 C   0  0  0  0  0  0  0  0  0  0  0  0
   31.3700   28.1000   34.4300 C   0  0  0  0  0  0  0  0  0  0  0  0
   30.1200   27.5900   34.0500 C   0  0  0  0  0  0  0  0  0  0  0  0
   29.1500   27.3400   35.0300 C   0  0  0  0  0  0  0  0  0  0  0  0
   27.8800   26.8900   34.6600 C   0  0  0  0  0  0  0  0  0  0  0  0
   27.4800   26.6100   33.3700 N   0  0  0  0  0  0  0  0  0  0  0  0
   23.1894   25.9982   35.9969 C   0  0  0  0  0  0  0  0  0  0  0  0
   22.7644   26.0522   34.7592 N   0  0  0  0  0  0  0  0  0  0  0  0
   21.5407   25.8257   34.0368 C   0  0  0  0  0  0  0  0  0  0  0  0
   20.3301   25.8114   34.5745 C   0  0  0  0  0  0  0  0  0  0  0  0
   18.9384   26.1529   34.1184 C   0  0  0  0  0  0  0  0  0  0  0  0
   18.3821   26.1265   35.3930 O   0  0  0  0  0  0  0  0  0  0  0  0
   19.6180   25.7154   35.8796 C   0  0  2  0  0  0  0  0  0  0  0  0
   20.2218   26.6655   36.9034 C   0  0  0  0  0  0  0  0  0  0  0  0
   21.2559   25.8865   37.6449 C   0  0  0  0  0  0  0  0  0  0  0  0
   22.4306   25.4858   37.1736 C   0  0  0  0  0  0  0  0  0  0  0  0
   23.0920   24.5960   38.1756 C   0  0  0  0  0  0  0  0  0  0  0  0
   22.1684   24.4952   39.3170 N   0  0  0  0  0  0  0  0  0  0  0  0
   20.9431   25.2102   38.9288 C   0  0  0  0  0  0  0  0  0  0  0  0
   22.7460   24.9420   40.6058 C   0  0  0  0  0  0  0  0  0  0  0  0
   23.1817   26.4330   40.6442 C   0  0  0  0  0  0  0  0  0  0  0  0
   22.3639   27.2556   41.6440 C   0  0  0  0  0  0  0  0  0  0  0  0
  1  2  1  0
  2  3  2  0
  2  4  1  0
  4  5  2  0
  5  6  1  0
  6  7  2  0
  7  8  1  0
  8  9  2  0
  9 10  1  0
 10 11  2  0
 11 12  1  0
 12 13  2  0
 13 14  1  0
  1 15  1  0
 15 16  2  0
 16 17  1  0
 17 18  2  0
 18 19  1  0
 19 20  1  0
 20 21  1  0
 21 22  1  1
 22 23  1  0
 23 24  2  0
 24 25  1  0
 25 26  1  0
 26 27  1  0
 26 28  1  0
 28 29  1  0
 29 30  1  0
 13  4  1  0
 24 15  1  0
 12  7  1  0
 21 18  1  0
 27 23  1  0
M  END
>  <AAScore>  (1) 
3509.5404101082904

>  <RootName>  (1) 
./4ZLY/04_DeltaGEst/trajectory_01/rank_00/lead_0495

$$$$
