confid_19
     RDKit          3D

 27 31  0  0  0  0  0  0  0  0999 V2000
   25.3300   26.2600   34.7600 N   0  0  0  0  0  0  0  0  0  0  0  0
   26.1200   25.9200   33.6900 C   0  0  0  0  0  0  0  0  0  0  0  0
   25.6300   25.1100   32.9400 O   0  0  0  0  0  0  0  0  0  0  0  0
   27.5200   26.3800   33.4600 C   0  0  0  0  0  0  0  0  0  0  0  0
   28.1600   26.6300   34.6100 N   0  0  0  0  0  0  0  0  0  0  0  0
   29.4800   26.8500   34.5700 N   0  0  0  0  0  0  0  0  0  0  0  0
   30.1900   26.7800   33.4400 C   0  0  0  0  0  0  0  0  0  0  0  0
   31.5600   27.0500   33.5000 C   0  0  0  0  0  0  0  0  0  0  0  0
   32.2700   27.2400   32.3100 C   0  0  0  0  0  0  0  0  0  0  0  0
   31.6100   27.2500   31.0800 C   0  0  0  0  0  0  0  0  0  0  0  0
   30.2700   26.8700   31.0600 C   0  0  0  0  0  0  0  0  0  0  0  0
   29.5100   26.6900   32.2300 C   0  0  0  0  0  0  0  0  0  0  0  0
   28.1400   26.4100   32.2000 C   0  0  0  0  0  0  0  0  0  0  0  0
   27.4300   26.1300   31.0500 N   0  0  0  0  0  0  0  0  0  0  0  0
   23.8943   26.1825   34.7952 C   0  0  0  0  0  0  0  0  0  0  0  0
   23.1962   26.3643   35.9503 N   0  0  0  0  0  0  0  0  0  0  0  0
   21.8715   26.2918   35.6880 C   0  0  0  0  0  0  0  0  0  0  0  0
   20.6850   26.6080   36.5448 C   0  0  0  0  0  0  0  0  0  0  0  0
   19.5822   26.5951   35.5663 N   0  0  0  0  0  0  0  0  0  0  0  0
   18.1762   26.8238   35.8830 C   0  0  0  0  0  0  0  0  0  0  0  0
   17.7114   28.1485   35.2673 C   0  0  0  0  0  0  0  0  0  0  0  0
   16.5685   28.8391   35.9960 C   0  0  0  0  0  0  0  0  0  0  0  0
   17.9841   29.3866   36.1081 C   0  0  0  0  0  0  0  0  0  0  0  0
   20.1130   26.2970   34.2710 C   0  0  0  0  0  0  0  0  0  0  0  0
   19.4411   26.2405   33.2076 O   0  0  0  0  0  0  0  0  0  0  0  0
   21.5272   26.1037   34.3989 C   0  0  0  0  0  0  0  0  0  0  0  0
   22.8791   26.0216   33.4190 S   0  0  0  0  0  0  0  0  0  0  0  0
  1  2  1  0
  2  3  2  0
  2  4  1  0
  4  5  2  0
  5  6  1  0
  6  7  2  0
  7  8  1  0
  8  9  2  0
  9 10  1  0
 10 11  2  0
 11 12  1  0
 12 13  2  0
 13 14  1  0
  1 15  1  0
 15 16  2  0
 16 17  1  0
 17 18  1  0
 18 19  1  0
 19 20  1  0
 20 21  1  0
 21 22  1  0
 22 23  1  0
 19 24  1  0
 24 25  2  0
 24 26  1  0
 26 27  1  0
 13  4  1  0
 27 15  1  0
 12  7  1  0
 26 17  2  0
 23 21  1  0
M  END
>  <AAScore>  (1) 
1148.9045129015965

>  <RootName>  (1) 
./4ZLY/04_DeltaGEst/trajectory_03/rank_00/lead_0077

$$$$
