confid_10
     RDKit          3D

 28 31  0  0  0  0  0  0  0  0999 V2000
   24.5700   26.8800   35.5900 N   0  0  0  0  0  0  0  0  0  0  0  0
   25.5000   26.4000   34.6900 C   0  0  0  0  0  0  0  0  0  0  0  0
   25.1700   25.5200   33.9100 O   0  0  0  0  0  0  0  0  0  0  0  0
   26.8400   27.0200   34.7400 C   0  0  0  0  0  0  0  0  0  0  0  0
   27.3800   27.2800   35.9400 N   0  0  0  0  0  0  0  0  0  0  0  0
   28.6200   27.7400   36.0300 N   0  0  0  0  0  0  0  0  0  0  0  0
   29.3800   28.0000   34.9600 C   0  0  0  0  0  0  0  0  0  0  0  0
   30.6700   28.5000   35.1300 C   0  0  0  0  0  0  0  0  0  0  0  0
   31.5400   28.6100   34.0300 C   0  0  0  0  0  0  0  0  0  0  0  0
   31.0900   28.2200   32.7700 C   0  0  0  0  0  0  0  0  0  0  0  0
   29.8000   27.7000   32.6000 C   0  0  0  0  0  0  0  0  0  0  0  0
   28.9600   27.5500   33.7100 C   0  0  0  0  0  0  0  0  0  0  0  0
   27.6600   27.0300   33.5900 C   0  0  0  0  0  0  0  0  0  0  0  0
   27.1600   26.7400   32.3400 N   0  0  0  0  0  0  0  0  0  0  0  0
   23.2255   26.3710   35.7030 C   0  0  0  0  0  0  0  0  0  0  0  0
   22.5755   25.9735   34.5828 N   0  0  0  0  0  0  0  0  0  0  0  0
   21.2928   25.5523   34.5941 C   0  0  0  0  0  0  0  0  0  0  0  0
   20.5470   25.5401   35.7804 C   0  0  0  0  0  0  0  0  0  0  0  0
   19.0800   25.1402   35.6531 C   0  0  0  0  0  0  0  0  0  0  0  0
   18.7852   23.7486   36.0772 N   0  0  0  0  0  0  0  0  0  0  0  0
   19.2510   22.7814   35.0688 C   0  0  0  0  0  0  0  0  0  0  0  0
   19.3123   23.3809   37.4089 C   0  0  0  0  0  0  0  0  0  0  0  0
   18.7859   24.2987   38.5267 C   0  0  0  0  0  0  0  0  0  0  0  0
   19.1107   25.6620   38.3230 O   0  0  0  0  0  0  0  0  0  0  0  0
   20.5053   25.8820   38.3727 C   0  0  0  0  0  0  0  0  0  0  0  0
   21.1902   25.9249   37.0018 C   0  0  0  0  0  0  0  0  0  0  0  0
   22.5636   26.3189   36.9526 C   0  0  0  0  0  0  0  0  0  0  0  0
   23.3219   26.7219   38.2040 C   0  0  0  0  0  0  0  0  0  0  0  0
  1  2  1  0
  2  3  2  0
  2  4  1  0
  4  5  2  0
  5  6  1  0
  6  7  2  0
  7  8  1  0
  8  9  2  0
  9 10  1  0
 10 11  2  0
 11 12  1  0
 12 13  2  0
 13 14  1  0
  1 15  1  0
 15 16  2  0
 16 17  1  0
 17 18  2  0
 18 19  1  0
 19 20  1  0
 20 21  1  0
 20 22  1  0
 22 23  1  0
 23 24  1  0
 24 25  1  0
 25 26  1  0
 26 27  2  0
 27 28  1  0
 13  4  1  0
 27 15  1  0
 12  7  1  0
 26 18  1  0
M  END
>  <AAScore>  (1) 
5917.891238492218

>  <RootName>  (1) 
./4ZLY/04_DeltaGEst/trajectory_05/rank_00/lead_0075

$$$$
