confid_12
     RDKit          3D

 28 31  0  0  0  0  0  0  0  0999 V2000
   24.4800   26.1000   36.1300 N   0  0  0  0  0  0  0  0  0  0  0  0
   25.2500   26.2500   34.9900 C   0  0  0  0  0  0  0  0  0  0  0  0
   24.7400   25.7600   33.9900 O   0  0  0  0  0  0  0  0  0  0  0  0
   26.5900   26.8900   34.9600 C   0  0  0  0  0  0  0  0  0  0  0  0
   27.0600   27.2400   36.1600 N   0  0  0  0  0  0  0  0  0  0  0  0
   28.3000   27.7100   36.2400 N   0  0  0  0  0  0  0  0  0  0  0  0
   29.0500   27.9600   35.1500 C   0  0  0  0  0  0  0  0  0  0  0  0
   30.3400   28.4900   35.2600 C   0  0  0  0  0  0  0  0  0  0  0  0
   31.1100   28.8200   34.1400 C   0  0  0  0  0  0  0  0  0  0  0  0
   30.5200   28.6700   32.8800 C   0  0  0  0  0  0  0  0  0  0  0  0
   29.2900   28.0200   32.7700 C   0  0  0  0  0  0  0  0  0  0  0  0
   28.5200   27.7100   33.8900 C   0  0  0  0  0  0  0  0  0  0  0  0
   27.2700   27.0800   33.7600 C   0  0  0  0  0  0  0  0  0  0  0  0
   26.7500   26.8800   32.4900 N   0  0  0  0  0  0  0  0  0  0  0  0
   23.0304   25.8782   36.1078 C   0  0  0  0  0  0  0  0  0  0  0  0
   22.3718   26.8136   35.1740 N   0  0  0  0  0  0  0  0  0  0  0  0
   22.4702   28.2084   35.6420 C   0  0  0  0  0  0  0  0  0  0  0  0
   21.9554   29.1442   34.5478 C   0  0  0  0  0  0  0  0  0  0  0  0
   20.6055   28.7537   34.1133 N   0  0  0  0  0  0  0  0  0  0  0  0
   20.3197   27.3210   33.9108 C   0  0  0  0  0  0  0  0  0  0  0  0
   20.9508   26.4610   35.0096 C   0  0  0  0  0  0  0  0  0  0  0  0
   19.7211   29.7225   33.4935 C   0  0  0  0  0  0  0  0  0  0  0  0
   20.2139   30.9143   32.9238 C   0  0  0  0  0  0  0  0  0  0  0  0
   19.3277   31.7999   32.3010 C   0  0  0  0  0  0  0  0  0  0  0  0
   17.9654   31.5038   32.2523 C   0  0  0  0  0  0  0  0  0  0  0  0
   17.1010   32.3504   31.6381 F   0  0  0  0  0  0  0  0  0  0  0  0
   17.5082   30.3143   32.8214 C   0  0  0  0  0  0  0  0  0  0  0  0
   18.3831   29.4623   33.4175 N   0  0  0  0  0  0  0  0  0  0  0  0
  1  2  1  0
  2  3  2  0
  2  4  1  0
  4  5  2  0
  5  6  1  0
  6  7  2  0
  7  8  1  0
  8  9  2  0
  9 10  1  0
 10 11  2  0
 11 12  1  0
 12 13  2  0
 13 14  1  0
  1 15  1  0
 15 16  1  0
 16 17  1  0
 17 18  1  0
 18 19  1  0
 19 20  1  0
 20 21  1  0
 19 22  1  0
 22 23  2  0
 23 24  1  0
 24 25  2  0
 25 26  1  0
 25 27  1  0
 27 28  2  0
 13  4  1  0
 21 16  1  0
 28 22  1  0
 12  7  1  0
M  END
>  <AAScore>  (1) 
1478.59487664738

>  <RootName>  (1) 
./4ZLY/04_DeltaGEst/trajectory_00/rank_00/lead_0045

$$$$
