confid_13
     RDKit          3D

 29 33  0  0  0  0  0  0  0  0999 V2000
   24.5700   26.8800   35.5900 N   0  0  0  0  0  0  0  0  0  0  0  0
   25.5000   26.4000   34.6900 C   0  0  0  0  0  0  0  0  0  0  0  0
   25.1700   25.5200   33.9100 O   0  0  0  0  0  0  0  0  0  0  0  0
   26.8400   27.0200   34.7400 C   0  0  0  0  0  0  0  0  0  0  0  0
   27.3800   27.2800   35.9400 N   0  0  0  0  0  0  0  0  0  0  0  0
   28.6200   27.7400   36.0300 N   0  0  0  0  0  0  0  0  0  0  0  0
   29.3800   28.0000   34.9600 C   0  0  0  0  0  0  0  0  0  0  0  0
   30.6700   28.5000   35.1300 C   0  0  0  0  0  0  0  0  0  0  0  0
   31.5400   28.6100   34.0300 C   0  0  0  0  0  0  0  0  0  0  0  0
   31.0900   28.2200   32.7700 C   0  0  0  0  0  0  0  0  0  0  0  0
   29.8000   27.7000   32.6000 C   0  0  0  0  0  0  0  0  0  0  0  0
   28.9600   27.5500   33.7100 C   0  0  0  0  0  0  0  0  0  0  0  0
   27.6600   27.0300   33.5900 C   0  0  0  0  0  0  0  0  0  0  0  0
   27.1600   26.7400   32.3400 N   0  0  0  0  0  0  0  0  0  0  0  0
   23.1479   26.8079   35.3859 C   0  0  0  0  0  0  0  0  0  0  0  0
   22.6344   26.5924   34.1331 N   0  0  0  0  0  0  0  0  0  0  0  0
   21.2922   26.5628   33.8922 C   0  0  0  0  0  0  0  0  0  0  0  0
   20.4157   26.7615   34.9556 C   0  0  0  0  0  0  0  0  0  0  0  0
   18.9322   26.7989   34.9382 C   0  0  0  0  0  0  0  0  0  0  0  0
   18.5968   27.0497   36.3414 N   0  0  0  0  0  0  0  0  0  0  0  0
   17.2578   27.2563   36.8156 C   0  0  0  0  0  0  0  0  0  0  0  0
   16.3128   27.3973   35.9924 O   0  0  0  0  0  0  0  0  0  0  0  0
   16.9778   27.3488   38.2897 C   0  0  0  0  0  0  0  0  0  0  0  0
   15.7090   26.6558   38.7709 C   0  0  0  0  0  0  0  0  0  0  0  0
   17.0609   26.0089   39.0086 C   0  0  0  0  0  0  0  0  0  0  0  0
   19.7893   27.1661   37.1845 C   0  0  0  0  0  0  0  0  0  0  0  0
   20.8998   26.9773   36.2210 C   0  0  0  0  0  0  0  0  0  0  0  0
   22.2700   27.0130   36.4704 C   0  0  0  0  0  0  0  0  0  0  0  0
   22.7349   27.2298   37.7262 F   0  0  0  0  0  0  0  0  0  0  0  0
  1  2  1  0
  2  3  2  0
  2  4  1  0
  4  5  2  0
  5  6  1  0
  6  7  2  0
  7  8  1  0
  8  9  2  0
  9 10  1  0
 10 11  2  0
 11 12  1  0
 12 13  2  0
 13 14  1  0
  1 15  1  0
 15 16  2  0
 16 17  1  0
 17 18  2  0
 18 19  1  0
 19 20  1  0
 20 21  1  0
 21 22  2  0
 21 23  1  0
 23 24  1  0
 24 25  1  0
 20 26  1  0
 26 27  1  0
 27 28  2  0
 28 29  1  0
 13  4  1  0
 28 15  1  0
 12  7  1  0
 27 18  1  0
 25 23  1  0
M  END
>  <AAScore>  (1) 
4536.896104051505

>  <RootName>  (1) 
./4ZLY/04_DeltaGEst/trajectory_05/rank_00/lead_0449

$$$$
