confid_13
     RDKit          3D

 29 33  0  0  0  0  0  0  0  0999 V2000
   25.3300   26.2600   34.7600 N   0  0  0  0  0  0  0  0  0  0  0  0
   26.1200   25.9200   33.6900 C   0  0  0  0  0  0  0  0  0  0  0  0
   25.6300   25.1100   32.9400 O   0  0  0  0  0  0  0  0  0  0  0  0
   27.5200   26.3800   33.4600 C   0  0  0  0  0  0  0  0  0  0  0  0
   28.1600   26.6300   34.6100 N   0  0  0  0  0  0  0  0  0  0  0  0
   29.4800   26.8500   34.5700 N   0  0  0  0  0  0  0  0  0  0  0  0
   30.1900   26.7800   33.4400 C   0  0  0  0  0  0  0  0  0  0  0  0
   31.5600   27.0500   33.5000 C   0  0  0  0  0  0  0  0  0  0  0  0
   32.2700   27.2400   32.3100 C   0  0  0  0  0  0  0  0  0  0  0  0
   31.6100   27.2500   31.0800 C   0  0  0  0  0  0  0  0  0  0  0  0
   30.2700   26.8700   31.0600 C   0  0  0  0  0  0  0  0  0  0  0  0
   29.5100   26.6900   32.2300 C   0  0  0  0  0  0  0  0  0  0  0  0
   28.1400   26.4100   32.2000 C   0  0  0  0  0  0  0  0  0  0  0  0
   27.4300   26.1300   31.0500 N   0  0  0  0  0  0  0  0  0  0  0  0
   23.9493   25.8910   34.9516 C   0  0  0  0  0  0  0  0  0  0  0  0
   23.2032   25.7018   33.8927 N   0  0  0  0  0  0  0  0  0  0  0  0
   21.8226   25.3830   33.6490 C   0  0  0  0  0  0  0  0  0  0  0  0
   20.8297   25.7726   34.4384 C   0  0  0  0  0  0  0  0  0  0  0  0
   19.4427   26.3146   34.2321 C   0  0  0  0  0  0  0  0  0  0  0  0
   19.3270   26.8400   35.5177 O   0  0  0  0  0  0  0  0  0  0  0  0
   20.5419   26.2378   35.8271 C   0  0  2  0  0  0  0  0  0  0  0  0
   21.6127   27.1931   36.3463 C   0  0  0  0  0  0  0  0  0  0  0  0
   22.6283   26.3331   37.0535 C   0  0  0  0  0  0  0  0  0  0  0  0
   23.5536   25.6156   36.3574 C   0  0  0  0  0  0  0  0  0  0  0  0
   24.3146   24.6241   36.9875 O   0  0  0  0  0  0  0  0  0  0  0  0
   25.2613   24.9008   38.0170 C   0  0  0  0  0  0  0  0  0  0  0  0
   24.5931   25.6394   39.1731 C   0  0  0  0  0  0  0  0  0  0  0  0
   23.2346   25.2628   39.2279 O   0  0  0  0  0  0  0  0  0  0  0  0
   22.4231   26.2160   38.5662 C   0  0  0  0  0  0  0  0  0  0  0  0
  1  2  1  0
  2  3  2  0
  2  4  1  0
  4  5  2  0
  5  6  1  0
  6  7  2  0
  7  8  1  0
  8  9  2  0
  9 10  1  0
 10 11  2  0
 11 12  1  0
 12 13  2  0
 13 14  1  0
  1 15  1  0
 15 16  2  0
 16 17  1  0
 17 18  2  0
 18 19  1  0
 19 20  1  0
 20 21  1  0
 21 22  1  6
 22 23  1  0
 23 24  2  0
 24 25  1  0
 25 26  1  0
 26 27  1  0
 27 28  1  0
 28 29  1  0
 13  4  1  0
 24 15  1  0
 12  7  1  0
 21 18  1  0
 29 23  1  0
M  END
>  <AAScore>  (1) 
475.26702854658765

>  <RootName>  (1) 
./4ZLY/04_DeltaGEst/trajectory_03/rank_00/lead_0020

$$$$
