confid_2
     RDKit          3D

 28 31  0  0  0  0  0  0  0  0999 V2000
   24.2000   26.2400   35.6900 N   0  0  0  0  0  0  0  0  0  0  0  0
   24.8500   26.2800   34.4800 C   0  0  0  0  0  0  0  0  0  0  0  0
   24.3100   25.7400   33.5400 O   0  0  0  0  0  0  0  0  0  0  0  0
   26.1800   26.9700   34.4700 C   0  0  0  0  0  0  0  0  0  0  0  0
   26.6500   27.6000   35.5500 N   0  0  0  0  0  0  0  0  0  0  0  0
   27.7900   28.2700   35.6200 N   0  0  0  0  0  0  0  0  0  0  0  0
   28.5400   28.3000   34.5100 C   0  0  0  0  0  0  0  0  0  0  0  0
   29.7700   28.9400   34.5600 C   0  0  0  0  0  0  0  0  0  0  0  0
   30.7000   28.8900   33.5000 C   0  0  0  0  0  0  0  0  0  0  0  0
   30.3700   28.1400   32.3700 C   0  0  0  0  0  0  0  0  0  0  0  0
   29.1200   27.5200   32.2800 C   0  0  0  0  0  0  0  0  0  0  0  0
   28.2100   27.6100   33.3300 C   0  0  0  0  0  0  0  0  0  0  0  0
   26.9700   26.9700   33.3100 C   0  0  0  0  0  0  0  0  0  0  0  0
   26.5300   26.2400   32.2200 N   0  0  0  0  0  0  0  0  0  0  0  0
   30.1310   29.6977   35.7300 N   0  0  0  0  0  0  0  0  0  0  0  0
   31.2753   29.2633   36.5446 C   0  0  0  0  0  0  0  0  0  0  0  0
   31.4354   30.1335   37.7962 C   0  0  0  0  0  0  0  0  0  0  0  0
   31.3115   31.5506   37.4377 N   0  0  0  0  0  0  0  0  0  0  0  0
   32.2904   32.4882   37.9048 C   0  0  0  0  0  0  0  0  0  0  0  0
   33.4725   32.6527   37.1685 C   0  0  0  0  0  0  0  0  0  0  0  0
   34.4600   33.5367   37.6051 C   0  0  0  0  0  0  0  0  0  0  0  0
   34.2742   34.2665   38.7802 C   0  0  0  0  0  0  0  0  0  0  0  0
   33.1045   34.1060   39.5269 C   0  0  0  0  0  0  0  0  0  0  0  0
   32.1024   33.2138   39.1045 C   0  0  0  0  0  0  0  0  0  0  0  0
   30.8497   33.0746   39.9379 C   0  0  0  0  0  0  0  0  0  0  0  0
   29.9504   34.2994   39.7869 C   0  0  0  0  0  0  0  0  0  0  0  0
   30.2405   32.0130   36.5461 C   0  0  0  0  0  0  0  0  0  0  0  0
   29.3254   30.8588   36.1296 C   0  0  0  0  0  0  0  0  0  0  0  0
  1  2  1  0
  2  3  2  0
  2  4  1  0
  4  5  2  0
  5  6  1  0
  6  7  2  0
  7  8  1  0
  8  9  2  0
  9 10  1  0
 10 11  2  0
 11 12  1  0
 12 13  2  0
 13 14  1  0
  8 15  1  0
 15 16  1  0
 16 17  1  0
 17 18  1  0
 18 19  1  0
 19 20  2  0
 20 21  1  0
 21 22  2  0
 22 23  1  0
 23 24  2  0
 24 25  1  0
 25 26  1  0
 18 27  1  0
 27 28  1  0
 13  4  1  0
 28 15  1  0
 12  7  1  0
 24 19  1  0
M  END
>  <AAScore>  (1) 
-8.622380678770314

>  <RootName>  (1) 
./4ZLY/04_DeltaGEst/trajectory_04/rank_01/lead_0122

$$$$
