confid_18
     RDKit          3D

 29 32  0  0  0  0  0  0  0  0999 V2000
   24.6900   26.1200   35.5300 N   0  0  0  0  0  0  0  0  0  0  0  0
   25.6600   25.6700   34.6600 C   0  0  0  0  0  0  0  0  0  0  0  0
   25.2400   25.0100   33.7200 O   0  0  0  0  0  0  0  0  0  0  0  0
   27.0300   26.2200   34.8800 C   0  0  0  0  0  0  0  0  0  0  0  0
   27.3500   26.7300   36.0700 N   0  0  0  0  0  0  0  0  0  0  0  0
   28.5700   27.1800   36.3300 N   0  0  0  0  0  0  0  0  0  0  0  0
   29.5300   27.1100   35.3900 C   0  0  0  0  0  0  0  0  0  0  0  0
   30.8300   27.5700   35.6500 C   0  0  0  0  0  0  0  0  0  0  0  0
   31.8500   27.5400   34.6900 C   0  0  0  0  0  0  0  0  0  0  0  0
   31.5100   27.1200   33.4000 C   0  0  0  0  0  0  0  0  0  0  0  0
   30.2200   26.6300   33.1100 C   0  0  0  0  0  0  0  0  0  0  0  0
   29.2400   26.6600   34.1000 C   0  0  0  0  0  0  0  0  0  0  0  0
   27.9300   26.2600   33.8100 C   0  0  0  0  0  0  0  0  0  0  0  0
   27.5200   25.7100   32.6100 N   0  0  0  0  0  0  0  0  0  0  0  0
   31.1818   28.0682   37.0025 C   0  0  0  0  0  0  0  0  0  0  0  0
   31.0309   27.2331   38.1234 C   0  0  0  0  0  0  0  0  0  0  0  0
   31.3781   27.6919   39.4023 C   0  0  0  0  0  0  0  0  0  0  0  0
   31.1300   26.8434   40.6174 C   0  0  0  0  0  0  0  0  0  0  0  0
   32.1226   27.1664   41.7388 C   0  0  0  0  0  0  0  0  0  0  0  0
   32.2357   28.6199   41.9347 N   0  0  0  0  0  0  0  0  0  0  0  0
   32.5897   29.1928   43.2061 C   0  0  0  0  0  0  0  0  0  0  0  0
   32.5412   30.4460   43.3431 O   0  0  0  0  0  0  0  0  0  0  0  0
   32.9726   28.3275   44.3834 C   0  0  0  0  0  0  0  0  0  0  0  0
   33.7382   29.0970   45.4592 C   0  0  0  0  0  0  0  0  0  0  0  0
   32.1897   29.4647   40.8386 O   0  0  0  0  0  0  0  0  0  0  0  0
   31.8557   28.9993   39.5653 C   0  0  0  0  0  0  0  0  0  0  0  0
   32.0021   29.8364   38.4564 C   0  0  0  0  0  0  0  0  0  0  0  0
   31.6744   29.3746   37.1782 C   0  0  0  0  0  0  0  0  0  0  0  0
   31.8136   30.2090   36.1165 F   0  0  0  0  0  0  0  0  0  0  0  0
  1  2  1  0
  2  3  2  0
  2  4  1  0
  4  5  2  0
  5  6  1  0
  6  7  2  0
  7  8  1  0
  8  9  2  0
  9 10  1  0
 10 11  2  0
 11 12  1  0
 12 13  2  0
 13 14  1  0
  8 15  1  0
 15 16  2  0
 16 17  1  0
 17 18  1  0
 18 19  1  0
 19 20  1  0
 20 21  1  0
 21 22  2  0
 21 23  1  0
 23 24  1  0
 20 25  1  0
 25 26  1  0
 26 27  1  0
 27 28  2  0
 28 29  1  0
 13  4  1  0
 28 15  1  0
 12  7  1  0
 26 17  2  0
M  END
>  <AAScore>  (1) 
342.7610688115507

>  <RootName>  (1) 
./4ZLY/04_DeltaGEst/trajectory_02/rank_01/lead_0236

$$$$
