confid_4
     RDKit          3D

 31 35  0  0  0  0  0  0  0  0999 V2000
   24.6900   26.1200   35.5300 N   0  0  0  0  0  0  0  0  0  0  0  0
   25.6600   25.6700   34.6600 C   0  0  0  0  0  0  0  0  0  0  0  0
   25.2400   25.0100   33.7200 O   0  0  0  0  0  0  0  0  0  0  0  0
   27.0300   26.2200   34.8800 C   0  0  0  0  0  0  0  0  0  0  0  0
   27.3500   26.7300   36.0700 N   0  0  0  0  0  0  0  0  0  0  0  0
   28.5700   27.1800   36.3300 N   0  0  0  0  0  0  0  0  0  0  0  0
   29.5300   27.1100   35.3900 C   0  0  0  0  0  0  0  0  0  0  0  0
   30.8300   27.5700   35.6500 C   0  0  0  0  0  0  0  0  0  0  0  0
   31.8500   27.5400   34.6900 C   0  0  0  0  0  0  0  0  0  0  0  0
   31.5100   27.1200   33.4000 C   0  0  0  0  0  0  0  0  0  0  0  0
   30.2200   26.6300   33.1100 C   0  0  0  0  0  0  0  0  0  0  0  0
   29.2400   26.6600   34.1000 C   0  0  0  0  0  0  0  0  0  0  0  0
   27.9300   26.2600   33.8100 C   0  0  0  0  0  0  0  0  0  0  0  0
   27.5200   25.7100   32.6100 N   0  0  0  0  0  0  0  0  0  0  0  0
   23.3310   26.3955   35.1462 C   0  0  0  0  0  0  0  0  0  0  0  0
   22.3995   25.9920   35.9767 N   0  0  0  0  0  0  0  0  0  0  0  0
   20.9666   26.0842   35.9671 C   0  0  0  0  0  0  0  0  0  0  0  0
   20.3118   26.8357   35.1072 C   0  0  0  0  0  0  0  0  0  0  0  0
   18.9671   26.9034   34.4445 C   0  0  0  0  0  0  0  0  0  0  0  0
   19.3815   27.7798   33.4439 O   0  0  0  0  0  0  0  0  0  0  0  0
   20.6332   27.8364   34.0594 C   0  0  2  0  0  0  0  0  0  0  0  0
   21.7573   27.2647   33.1878 C   0  0  0  0  0  0  0  0  0  0  0  0
   23.1205   27.2727   33.9041 C   0  0  0  0  0  0  0  0  0  0  0  0
   20.9234   29.2550   34.6266 C   0  0  0  0  0  0  0  0  0  0  0  0
   19.7276   29.8683   35.2135 N   0  0  0  0  0  0  0  0  0  0  0  0
   19.2838   29.6938   36.4697 C   0  0  0  0  0  0  0  0  0  0  0  0
   18.1050   30.3953   36.5998 C   0  0  0  0  0  0  0  0  0  0  0  0
   17.2267   30.4096   37.8060 C   0  0  0  0  0  0  0  0  0  0  0  0
   17.7890   30.9936   35.4329 N   0  0  0  0  0  0  0  0  0  0  0  0
   18.8052   30.6536   34.6098 C   0  0  0  0  0  0  0  0  0  0  0  0
   18.8905   31.1227   33.1915 C   0  0  0  0  0  0  0  0  0  0  0  0
  1  2  1  0
  2  3  2  0
  2  4  1  0
  4  5  2  0
  5  6  1  0
  6  7  2  0
  7  8  1  0
  8  9  2  0
  9 10  1  0
 10 11  2  0
 11 12  1  0
 12 13  2  0
 13 14  1  0
  1 15  1  0
 15 16  2  0
 16 17  1  0
 17 18  2  0
 18 19  1  0
 19 20  1  0
 20 21  1  0
 21 22  1  0
 22 23  1  0
 21 24  1  1
 24 25  1  0
 25 26  1  0
 26 27  2  0
 27 28  1  0
 27 29  1  0
 29 30  2  0
 30 31  1  0
 13  4  1  0
 23 15  1  0
 30 25  1  0
 12  7  1  0
 21 18  1  0
M  END
>  <AAScore>  (1) 
13523.62587366984

>  <RootName>  (1) 
./4ZLY/04_DeltaGEst/trajectory_02/rank_00/lead_0435

$$$$
