confid_4
     RDKit          3D

 26 28  0  0  0  0  0  0  0  0999 V2000
   24.2000   26.2400   35.6900 N   0  0  0  0  0  0  0  0  0  0  0  0
   24.8500   26.2800   34.4800 C   0  0  0  0  0  0  0  0  0  0  0  0
   24.3100   25.7400   33.5400 O   0  0  0  0  0  0  0  0  0  0  0  0
   26.1800   26.9700   34.4700 C   0  0  0  0  0  0  0  0  0  0  0  0
   26.6500   27.6000   35.5500 N   0  0  0  0  0  0  0  0  0  0  0  0
   27.7900   28.2700   35.6200 N   0  0  0  0  0  0  0  0  0  0  0  0
   28.5400   28.3000   34.5100 C   0  0  0  0  0  0  0  0  0  0  0  0
   29.7700   28.9400   34.5600 C   0  0  0  0  0  0  0  0  0  0  0  0
   30.7000   28.8900   33.5000 C   0  0  0  0  0  0  0  0  0  0  0  0
   30.3700   28.1400   32.3700 C   0  0  0  0  0  0  0  0  0  0  0  0
   29.1200   27.5200   32.2800 C   0  0  0  0  0  0  0  0  0  0  0  0
   28.2100   27.6100   33.3300 C   0  0  0  0  0  0  0  0  0  0  0  0
   26.9700   26.9700   33.3100 C   0  0  0  0  0  0  0  0  0  0  0  0
   26.5300   26.2400   32.2200 N   0  0  0  0  0  0  0  0  0  0  0  0
   30.1352   29.6718   35.7430 N   0  0  0  0  0  0  0  0  0  0  0  0
   29.4289   30.9060   36.0980 C   0  0  0  0  0  0  0  0  0  0  0  0
   29.0775   30.9247   37.6009 C   0  0  0  0  0  0  0  0  0  0  0  0
   29.9515   30.0452   38.4266 N   0  0  0  0  0  0  0  0  0  0  0  0
   29.8717   30.2816   39.9094 C   0  0  0  0  0  0  0  0  0  0  0  0
   30.6759   31.5327   40.3432 C   0  0  0  0  0  0  0  0  0  0  0  0
   28.3981   30.4679   40.3641 C   0  0  0  0  0  0  0  0  0  0  0  0
   30.4208   29.0413   40.6691 C   0  0  0  0  0  0  0  0  0  0  0  0
   29.8444   27.8629   40.1405 O   0  0  0  0  0  0  0  0  0  0  0  0
   30.3695   26.7390   40.8098 C   0  0  0  0  0  0  0  0  0  0  0  0
   31.3246   29.9845   37.8758 C   0  0  0  0  0  0  0  0  0  0  0  0
   31.2888   29.2421   36.5388 C   0  0  0  0  0  0  0  0  0  0  0  0
  1  2  1  0
  2  3  2  0
  2  4  1  0
  4  5  2  0
  5  6  1  0
  6  7  2  0
  7  8  1  0
  8  9  2  0
  9 10  1  0
 10 11  2  0
 11 12  1  0
 12 13  2  0
 13 14  1  0
  8 15  1  0
 15 16  1  0
 16 17  1  0
 17 18  1  0
 18 19  1  0
 19 20  1  0
 19 21  1  0
 19 22  1  0
 22 23  1  0
 23 24  1  0
 18 25  1  0
 25 26  1  0
 13  4  1  0
 26 15  1  0
 12  7  1  0
M  END
>  <AAScore>  (1) 
-8.286374287088151

>  <RootName>  (1) 
./4ZLY/04_DeltaGEst/trajectory_04/rank_01/lead_0182

$$$$
