confid_3
     RDKit          3D

 26 29  0  0  0  0  0  0  0  0999 V2000
   24.5700   26.8800   35.5900 N   0  0  0  0  0  0  0  0  0  0  0  0
   25.5000   26.4000   34.6900 C   0  0  0  0  0  0  0  0  0  0  0  0
   25.1700   25.5200   33.9100 O   0  0  0  0  0  0  0  0  0  0  0  0
   26.8400   27.0200   34.7400 C   0  0  0  0  0  0  0  0  0  0  0  0
   27.3800   27.2800   35.9400 N   0  0  0  0  0  0  0  0  0  0  0  0
   28.6200   27.7400   36.0300 N   0  0  0  0  0  0  0  0  0  0  0  0
   29.3800   28.0000   34.9600 C   0  0  0  0  0  0  0  0  0  0  0  0
   30.6700   28.5000   35.1300 C   0  0  0  0  0  0  0  0  0  0  0  0
   31.5400   28.6100   34.0300 C   0  0  0  0  0  0  0  0  0  0  0  0
   31.0900   28.2200   32.7700 C   0  0  0  0  0  0  0  0  0  0  0  0
   29.8000   27.7000   32.6000 C   0  0  0  0  0  0  0  0  0  0  0  0
   28.9600   27.5500   33.7100 C   0  0  0  0  0  0  0  0  0  0  0  0
   27.6600   27.0300   33.5900 C   0  0  0  0  0  0  0  0  0  0  0  0
   27.1600   26.7400   32.3400 N   0  0  0  0  0  0  0  0  0  0  0  0
   23.1737   26.5133   35.5901 C   0  0  0  0  0  0  0  0  0  0  0  0
   22.5996   26.0279   34.4531 N   0  0  0  0  0  0  0  0  0  0  0  0
   21.2848   25.7011   34.3822 C   0  0  0  0  0  0  0  0  0  0  0  0
   20.4666   25.8621   35.4969 C   0  0  0  0  0  0  0  0  0  0  0  0
   19.1122   25.5352   35.4245 O   0  0  0  0  0  0  0  0  0  0  0  0
   18.2157   25.8636   36.4842 C   0  0  0  0  0  0  0  0  0  0  0  0
   18.8635   25.6887   37.7978 N   0  0  0  0  0  0  0  0  0  0  0  0
   19.1279   24.2673   38.0799 C   0  0  0  0  0  0  0  0  0  0  0  0
   20.0962   26.5033   37.8944 C   0  0  0  0  0  0  0  0  0  0  0  0
   21.0139   26.3313   36.6984 C   0  0  0  0  0  0  0  0  0  0  0  0
   22.3781   26.6881   36.7450 C   0  0  0  0  0  0  0  0  0  0  0  0
   23.0831   27.3232   38.2353 Cl  0  0  0  0  0  0  0  0  0  0  0  0
  1  2  1  0
  2  3  2  0
  2  4  1  0
  4  5  2  0
  5  6  1  0
  6  7  2  0
  7  8  1  0
  8  9  2  0
  9 10  1  0
 10 11  2  0
 11 12  1  0
 12 13  2  0
 13 14  1  0
  1 15  1  0
 15 16  2  0
 16 17  1  0
 17 18  2  0
 18 19  1  0
 19 20  1  0
 20 21  1  0
 21 22  1  0
 21 23  1  0
 23 24  1  0
 24 25  2  0
 25 26  1  0
 13  4  1  0
 25 15  1  0
 12  7  1  0
 24 18  1  0
M  END
>  <AAScore>  (1) 
6806.774671454025

>  <RootName>  (1) 
./4ZLY/04_DeltaGEst/trajectory_05/rank_00/lead_0169

$$$$
