confid_14
     RDKit          3D

 28 31  0  0  0  0  0  0  0  0999 V2000
   25.3300   26.2600   34.7600 N   0  0  0  0  0  0  0  0  0  0  0  0
   26.1200   25.9200   33.6900 C   0  0  0  0  0  0  0  0  0  0  0  0
   25.6300   25.1100   32.9400 O   0  0  0  0  0  0  0  0  0  0  0  0
   27.5200   26.3800   33.4600 C   0  0  0  0  0  0  0  0  0  0  0  0
   28.1600   26.6300   34.6100 N   0  0  0  0  0  0  0  0  0  0  0  0
   29.4800   26.8500   34.5700 N   0  0  0  0  0  0  0  0  0  0  0  0
   30.1900   26.7800   33.4400 C   0  0  0  0  0  0  0  0  0  0  0  0
   31.5600   27.0500   33.5000 C   0  0  0  0  0  0  0  0  0  0  0  0
   32.2700   27.2400   32.3100 C   0  0  0  0  0  0  0  0  0  0  0  0
   31.6100   27.2500   31.0800 C   0  0  0  0  0  0  0  0  0  0  0  0
   30.2700   26.8700   31.0600 C   0  0  0  0  0  0  0  0  0  0  0  0
   29.5100   26.6900   32.2300 C   0  0  0  0  0  0  0  0  0  0  0  0
   28.1400   26.4100   32.2000 C   0  0  0  0  0  0  0  0  0  0  0  0
   27.4300   26.1300   31.0500 N   0  0  0  0  0  0  0  0  0  0  0  0
   23.8927   26.1831   34.7885 C   0  0  0  0  0  0  0  0  0  0  0  0
   23.2670   25.9680   35.9779 N   0  0  0  0  0  0  0  0  0  0  0  0
   21.9134   25.9138   36.0855 C   0  0  0  0  0  0  0  0  0  0  0  0
   21.1087   26.0837   34.9519 C   0  0  0  0  0  0  0  0  0  0  0  0
   19.6052   26.0854   35.0770 C   0  0  0  0  0  0  0  0  0  0  0  0
   18.9169   25.7529   33.8119 N   0  0  0  0  0  0  0  0  0  0  0  0
   17.5145   25.3993   33.8299 C   0  0  0  0  0  0  0  0  0  0  0  0
   17.0154   24.7863   32.8450 O   0  0  0  0  0  0  0  0  0  0  0  0
   16.6465   25.6775   35.0352 C   0  0  0  0  0  0  0  0  0  0  0  0
   15.1773   25.8671   34.6631 C   0  0  0  0  0  0  0  0  0  0  0  0
   19.6514   25.6504   32.5372 C   0  0  0  0  0  0  0  0  0  0  0  0
   20.8687   26.5749   32.5107 C   0  0  0  0  0  0  0  0  0  0  0  0
   21.7231   26.3290   33.7162 C   0  0  0  0  0  0  0  0  0  0  0  0
   23.1199   26.3939   33.6336 C   0  0  0  0  0  0  0  0  0  0  0  0
  1  2  1  0
  2  3  2  0
  2  4  1  0
  4  5  2  0
  5  6  1  0
  6  7  2  0
  7  8  1  0
  8  9  2  0
  9 10  1  0
 10 11  2  0
 11 12  1  0
 12 13  2  0
 13 14  1  0
  1 15  1  0
 15 16  2  0
 16 17  1  0
 17 18  2  0
 18 19  1  0
 19 20  1  0
 20 21  1  0
 21 22  2  0
 21 23  1  0
 23 24  1  0
 20 25  1  0
 25 26  1  0
 26 27  1  0
 27 28  2  0
 13  4  1  0
 28 15  1  0
 12  7  1  0
 27 18  1  0
M  END
>  <AAScore>  (1) 
4964.31737076646

>  <RootName>  (1) 
./4ZLY/04_DeltaGEst/trajectory_03/rank_00/lead_0391

$$$$
