confid_0
     RDKit          3D

 30 34  0  0  0  0  0  0  0  0999 V2000
   24.6900   26.1200   35.5300 N   0  0  0  0  0  0  0  0  0  0  0  0
   25.6600   25.6700   34.6600 C   0  0  0  0  0  0  0  0  0  0  0  0
   25.2400   25.0100   33.7200 O   0  0  0  0  0  0  0  0  0  0  0  0
   27.0300   26.2200   34.8800 C   0  0  0  0  0  0  0  0  0  0  0  0
   27.3500   26.7300   36.0700 N   0  0  0  0  0  0  0  0  0  0  0  0
   28.5700   27.1800   36.3300 N   0  0  0  0  0  0  0  0  0  0  0  0
   29.5300   27.1100   35.3900 C   0  0  0  0  0  0  0  0  0  0  0  0
   30.8300   27.5700   35.6500 C   0  0  0  0  0  0  0  0  0  0  0  0
   31.8500   27.5400   34.6900 C   0  0  0  0  0  0  0  0  0  0  0  0
   31.5100   27.1200   33.4000 C   0  0  0  0  0  0  0  0  0  0  0  0
   30.2200   26.6300   33.1100 C   0  0  0  0  0  0  0  0  0  0  0  0
   29.2400   26.6600   34.1000 C   0  0  0  0  0  0  0  0  0  0  0  0
   27.9300   26.2600   33.8100 C   0  0  0  0  0  0  0  0  0  0  0  0
   27.5200   25.7100   32.6100 N   0  0  0  0  0  0  0  0  0  0  0  0
   23.5075   25.3702   35.8338 C   0  0  0  0  0  0  0  0  0  0  0  0
   22.3508   25.8382   35.4465 N   0  0  0  0  0  0  0  0  0  0  0  0
   21.0966   25.2170   35.7395 C   0  0  0  0  0  0  0  0  0  0  0  0
   20.7435   25.0300   37.0020 C   0  0  0  0  0  0  0  0  0  0  0  0
   19.7697   24.2447   37.8248 C   0  0  0  0  0  0  0  0  0  0  0  0
   20.3436   24.5860   39.0497 O   0  0  0  0  0  0  0  0  0  0  0  0
   21.2424   25.4018   38.3682 C   0  0  1  0  0  0  0  0  0  0  0  0
   22.7217   25.0504   38.6419 C   0  0  0  0  0  0  0  0  0  0  0  0
   23.2414   23.8778   37.8229 C   0  0  0  0  0  0  0  0  0  0  0  0
   23.6369   24.0485   36.5237 C   0  0  0  0  0  0  0  0  0  0  0  0
   24.1399   22.9982   35.7361 O   0  0  0  0  0  0  0  0  0  0  0  0
   24.7730   21.8206   36.2298 C   0  0  0  0  0  0  0  0  0  0  0  0
   23.7411   20.8360   36.7946 C   0  0  0  0  0  0  0  0  0  0  0  0
   22.6525   21.5174   37.5233 N   0  0  0  0  0  0  0  0  0  0  0  0
   21.7972   20.5275   38.1987 C   0  0  0  0  0  0  0  0  0  0  0  0
   23.1779   22.5151   38.4815 C   0  0  0  0  0  0  0  0  0  0  0  0
  1  2  1  0
  2  3  2  0
  2  4  1  0
  4  5  2  0
  5  6  1  0
  6  7  2  0
  7  8  1  0
  8  9  2  0
  9 10  1  0
 10 11  2  0
 11 12  1  0
 12 13  2  0
 13 14  1  0
  1 15  1  0
 15 16  2  0
 16 17  1  0
 17 18  2  0
 18 19  1  0
 19 20  1  0
 20 21  1  0
 21 22  1  6
 22 23  1  0
 23 24  2  0
 24 25  1  0
 25 26  1  0
 26 27  1  0
 27 28  1  0
 28 29  1  0
 28 30  1  0
 13  4  1  0
 24 15  1  0
 12  7  1  0
 21 18  1  0
 30 23  1  0
M  END
>  <AAScore>  (1) 
40711.780342418206

>  <RootName>  (1) 
./4ZLY/04_DeltaGEst/trajectory_02/rank_00/lead_0242

$$$$
