confid_0
     RDKit          3D

 27 30  0  0  0  0  0  0  0  0999 V2000
   24.5500   26.3900   36.2500 N   0  0  0  0  0  0  0  0  0  0  0  0
   25.6000   26.1300   35.4000 C   0  0  0  0  0  0  0  0  0  0  0  0
   25.4300   25.4300   34.4200 O   0  0  0  0  0  0  0  0  0  0  0  0
   26.9800   26.6300   35.7100 C   0  0  0  0  0  0  0  0  0  0  0  0
   27.3200   26.8200   36.9800 N   0  0  0  0  0  0  0  0  0  0  0  0
   28.4700   27.4000   37.3100 N   0  0  0  0  0  0  0  0  0  0  0  0
   29.4000   27.6300   36.3700 C   0  0  0  0  0  0  0  0  0  0  0  0
   30.6600   28.0500   36.8000 C   0  0  0  0  0  0  0  0  0  0  0  0
   31.5700   28.3600   35.7800 C   0  0  0  0  0  0  0  0  0  0  0  0
   31.3700   28.1000   34.4300 C   0  0  0  0  0  0  0  0  0  0  0  0
   30.1200   27.5900   34.0500 C   0  0  0  0  0  0  0  0  0  0  0  0
   29.1500   27.3400   35.0300 C   0  0  0  0  0  0  0  0  0  0  0  0
   27.8800   26.8900   34.6600 C   0  0  0  0  0  0  0  0  0  0  0  0
   27.4800   26.6100   33.3700 N   0  0  0  0  0  0  0  0  0  0  0  0
   30.9611   28.3367   38.1809 N   0  0  0  0  0  0  0  0  0  0  0  0
   30.3245   29.5074   38.7817 C   0  0  0  0  0  0  0  0  0  0  0  0
   31.3515   30.2695   39.5961 C   0  0  0  0  0  0  0  0  0  0  0  0
   31.9809   29.3706   40.6326 C   0  0  0  0  0  0  0  0  0  0  0  0
   32.4903   29.9113   41.8404 C   0  0  0  0  0  0  0  0  0  0  0  0
   33.0700   29.0488   42.7782 C   0  0  0  0  0  0  0  0  0  0  0  0
   33.1824   27.7254   42.5159 N   0  0  0  0  0  0  0  0  0  0  0  0
   32.7413   27.1832   41.3551 C   0  0  0  0  0  0  0  0  0  0  0  0
   32.1257   27.9826   40.3694 C   0  0  0  0  0  0  0  0  0  0  0  0
   31.6649   27.3489   39.0401 C   0  0  0  0  0  0  0  0  0  0  0  0
   30.6975   26.1800   39.3252 C   0  0  0  0  0  0  0  0  0  0  0  0
   32.9142   26.8131   38.3041 C   0  0  0  0  0  0  0  0  0  0  0  0
   32.4082   31.3827   42.1562 C   0  0  0  0  0  0  0  0  0  0  0  0
  1  2  1  0
  2  3  2  0
  2  4  1  0
  4  5  2  0
  5  6  1  0
  6  7  2  0
  7  8  1  0
  8  9  2  0
  9 10  1  0
 10 11  2  0
 11 12  1  0
 12 13  2  0
 13 14  1  0
  8 15  1  0
 15 16  1  0
 16 17  1  0
 17 18  1  0
 18 19  2  0
 19 20  1  0
 20 21  2  0
 21 22  1  0
 22 23  2  0
 23 24  1  0
 24 25  1  0
 24 26  1  0
 19 27  1  0
 13  4  1  0
 24 15  1  0
 12  7  1  0
 23 18  1  0
M  END
>  <AAScore>  (1) 
1077.9900715112924

>  <RootName>  (1) 
./4ZLY/04_DeltaGEst/trajectory_01/rank_01/lead_0441

$$$$
