confid_12
     RDKit          3D

 27 30  0  0  0  0  0  0  0  0999 V2000
   24.2000   26.2400   35.6900 N   0  0  0  0  0  0  0  0  0  0  0  0
   24.8500   26.2800   34.4800 C   0  0  0  0  0  0  0  0  0  0  0  0
   24.3100   25.7400   33.5400 O   0  0  0  0  0  0  0  0  0  0  0  0
   26.1800   26.9700   34.4700 C   0  0  0  0  0  0  0  0  0  0  0  0
   26.6500   27.6000   35.5500 N   0  0  0  0  0  0  0  0  0  0  0  0
   27.7900   28.2700   35.6200 N   0  0  0  0  0  0  0  0  0  0  0  0
   28.5400   28.3000   34.5100 C   0  0  0  0  0  0  0  0  0  0  0  0
   29.7700   28.9400   34.5600 C   0  0  0  0  0  0  0  0  0  0  0  0
   30.7000   28.8900   33.5000 C   0  0  0  0  0  0  0  0  0  0  0  0
   30.3700   28.1400   32.3700 C   0  0  0  0  0  0  0  0  0  0  0  0
   29.1200   27.5200   32.2800 C   0  0  0  0  0  0  0  0  0  0  0  0
   28.2100   27.6100   33.3300 C   0  0  0  0  0  0  0  0  0  0  0  0
   26.9700   26.9700   33.3100 C   0  0  0  0  0  0  0  0  0  0  0  0
   26.5300   26.2400   32.2200 N   0  0  0  0  0  0  0  0  0  0  0  0
   30.1270   29.6809   35.7373 N   0  0  0  0  0  0  0  0  0  0  0  0
   31.2270   29.2123   36.5794 C   0  0  0  0  0  0  0  0  0  0  0  0
   30.8605   29.4148   38.0449 C   0  0  0  0  0  0  0  0  0  0  0  0
   30.4384   30.8394   38.3053 C   0  0  0  0  0  0  0  0  0  0  0  0
   30.5727   31.3930   39.5976 C   0  0  0  0  0  0  0  0  0  0  0  0
   31.1082   30.6206   40.6333 O   0  0  0  0  0  0  0  0  0  0  0  0
   30.2703   29.8748   41.5086 C   0  0  0  0  0  0  0  0  0  0  0  0
   30.1754   32.7237   39.8432 C   0  0  0  0  0  0  0  0  0  0  0  0
   30.3058   33.3302   41.2123 C   0  0  0  0  0  0  0  0  0  0  0  0
   29.5814   33.4670   38.8148 C   0  0  0  0  0  0  0  0  0  0  0  0
   29.4090   32.9108   37.5478 C   0  0  0  0  0  0  0  0  0  0  0  0
   29.8301   31.6011   37.2799 C   0  0  0  0  0  0  0  0  0  0  0  0
   29.6183   31.0486   35.8872 C   0  0  0  0  0  0  0  0  0  0  0  0
  1  2  1  0
  2  3  2  0
  2  4  1  0
  4  5  2  0
  5  6  1  0
  6  7  2  0
  7  8  1  0
  8  9  2  0
  9 10  1  0
 10 11  2  0
 11 12  1  0
 12 13  2  0
 13 14  1  0
  8 15  1  0
 15 16  1  0
 16 17  1  0
 17 18  1  0
 18 19  2  0
 19 20  1  0
 20 21  1  0
 19 22  1  0
 22 23  1  0
 22 24  2  0
 24 25  1  0
 25 26  2  0
 26 27  1  0
 13  4  1  0
 27 15  1  0
 12  7  1  0
 26 18  1  0
M  END
>  <AAScore>  (1) 
-9.569195833515316

>  <RootName>  (1) 
./4ZLY/04_DeltaGEst/trajectory_04/rank_01/lead_0315

$$$$
