confid_3
     RDKit          3D

 26 29  0  0  0  0  0  0  0  0999 V2000
   24.4800   26.1000   36.1300 N   0  0  0  0  0  0  0  0  0  0  0  0
   25.2500   26.2500   34.9900 C   0  0  0  0  0  0  0  0  0  0  0  0
   24.7400   25.7600   33.9900 O   0  0  0  0  0  0  0  0  0  0  0  0
   26.5900   26.8900   34.9600 C   0  0  0  0  0  0  0  0  0  0  0  0
   27.0600   27.2400   36.1600 N   0  0  0  0  0  0  0  0  0  0  0  0
   28.3000   27.7100   36.2400 N   0  0  0  0  0  0  0  0  0  0  0  0
   29.0500   27.9600   35.1500 C   0  0  0  0  0  0  0  0  0  0  0  0
   30.3400   28.4900   35.2600 C   0  0  0  0  0  0  0  0  0  0  0  0
   31.1100   28.8200   34.1400 C   0  0  0  0  0  0  0  0  0  0  0  0
   30.5200   28.6700   32.8800 C   0  0  0  0  0  0  0  0  0  0  0  0
   29.2900   28.0200   32.7700 C   0  0  0  0  0  0  0  0  0  0  0  0
   28.5200   27.7100   33.8900 C   0  0  0  0  0  0  0  0  0  0  0  0
   27.2700   27.0800   33.7600 C   0  0  0  0  0  0  0  0  0  0  0  0
   26.7500   26.8800   32.4900 N   0  0  0  0  0  0  0  0  0  0  0  0
   23.1002   25.6910   36.1684 C   0  0  0  0  0  0  0  0  0  0  0  0
   22.3332   25.4779   35.0753 N   0  0  0  0  0  0  0  0  0  0  0  0
   21.0609   25.1139   35.3976 C   0  0  0  0  0  0  0  0  0  0  0  0
   20.0744   24.7826   34.3097 C   0  0  0  0  0  0  0  0  0  0  0  0
   19.7606   23.2805   34.2373 C   0  0  0  0  0  0  0  0  0  0  0  0
   19.5375   22.6777   35.5711 N   0  0  0  0  0  0  0  0  0  0  0  0
   19.5760   21.2088   35.4581 C   0  0  0  0  0  0  0  0  0  0  0  0
   18.2542   23.1054   36.1742 C   0  0  0  0  0  0  0  0  0  0  0  0
   18.3653   24.4660   36.8838 C   0  0  0  0  0  0  0  0  0  0  0  0
   19.6503   24.6727   37.4678 O   0  0  0  0  0  0  0  0  0  0  0  0
   20.8214   25.0373   36.7836 C   0  0  0  0  0  0  0  0  0  0  0  0
   22.2413   25.4398   37.5891 S   0  0  0  0  0  0  0  0  0  0  0  0
  1  2  1  0
  2  3  2  0
  2  4  1  0
  4  5  2  0
  5  6  1  0
  6  7  2  0
  7  8  1  0
  8  9  2  0
  9 10  1  0
 10 11  2  0
 11 12  1  0
 12 13  2  0
 13 14  1  0
  1 15  1  0
 15 16  2  0
 16 17  1  0
 17 18  1  0
 18 19  1  0
 19 20  1  0
 20 21  1  0
 20 22  1  0
 22 23  1  0
 23 24  1  0
 24 25  1  0
 25 26  1  0
 13  4  1  0
 26 15  1  0
 12  7  1  0
 25 17  2  0
M  END
>  <AAScore>  (1) 
1270.9280967085217

>  <RootName>  (1) 
./4ZLY/04_DeltaGEst/trajectory_00/rank_01/lead_0215

$$$$
