confid_14
     RDKit          3D

 30 34  0  0  0  0  0  0  0  0999 V2000
   24.2000   26.2400   35.6900 N   0  0  0  0  0  0  0  0  0  0  0  0
   24.8500   26.2800   34.4800 C   0  0  0  0  0  0  0  0  0  0  0  0
   24.3100   25.7400   33.5400 O   0  0  0  0  0  0  0  0  0  0  0  0
   26.1800   26.9700   34.4700 C   0  0  0  0  0  0  0  0  0  0  0  0
   26.6500   27.6000   35.5500 N   0  0  0  0  0  0  0  0  0  0  0  0
   27.7900   28.2700   35.6200 N   0  0  0  0  0  0  0  0  0  0  0  0
   28.5400   28.3000   34.5100 C   0  0  0  0  0  0  0  0  0  0  0  0
   29.7700   28.9400   34.5600 C   0  0  0  0  0  0  0  0  0  0  0  0
   30.7000   28.8900   33.5000 C   0  0  0  0  0  0  0  0  0  0  0  0
   30.3700   28.1400   32.3700 C   0  0  0  0  0  0  0  0  0  0  0  0
   29.1200   27.5200   32.2800 C   0  0  0  0  0  0  0  0  0  0  0  0
   28.2100   27.6100   33.3300 C   0  0  0  0  0  0  0  0  0  0  0  0
   26.9700   26.9700   33.3100 C   0  0  0  0  0  0  0  0  0  0  0  0
   26.5300   26.2400   32.2200 N   0  0  0  0  0  0  0  0  0  0  0  0
   30.1599   29.6218   35.7657 N   0  0  0  0  0  0  0  0  0  0  0  0
   30.5538   28.8330   36.9449 C   0  0  0  0  0  0  0  0  0  0  0  0
   29.9617   29.4488   38.2193 C   0  0  0  0  0  0  0  0  0  0  0  0
   30.1513   30.9322   38.2094 C   0  0  0  0  0  0  0  0  0  0  0  0
   30.0317   31.9633   39.5299 S   0  0  0  0  0  0  0  0  0  0  0  0
   30.2852   33.3844   38.6524 C   0  0  0  0  0  0  0  0  0  0  0  0
   30.4321   33.0612   37.3042 C   0  0  0  0  0  0  0  0  0  0  0  0
   30.3451   31.6849   37.0600 C   0  0  0  0  0  0  0  0  0  0  0  0
   30.5101   31.0495   35.7091 C   0  0  0  0  0  0  0  0  0  0  0  0
   30.2892   34.7508   39.2095 C   0  0  0  0  0  0  0  0  0  0  0  0
   30.2506   35.7360   38.4238 O   0  0  0  0  0  0  0  0  0  0  0  0
   30.3083   34.9791   40.6298 N   0  0  0  0  0  0  0  0  0  0  0  0
   31.3417   34.3656   41.4683 C   0  0  0  0  0  0  0  0  0  0  0  0
   29.1733   35.6751   41.2445 C   0  0  0  0  0  0  0  0  0  0  0  0
   29.1546   37.1688   40.9515 C   0  0  0  0  0  0  0  0  0  0  0  0
   29.5166   36.6749   42.3412 C   0  0  0  0  0  0  0  0  0  0  0  0
  1  2  1  0
  2  3  2  0
  2  4  1  0
  4  5  2  0
  5  6  1  0
  6  7  2  0
  7  8  1  0
  8  9  2  0
  9 10  1  0
 10 11  2  0
 11 12  1  0
 12 13  2  0
 13 14  1  0
  8 15  1  0
 15 16  1  0
 16 17  1  0
 17 18  1  0
 18 19  1  0
 19 20  1  0
 20 21  2  0
 21 22  1  0
 22 23  1  0
 20 24  1  0
 24 25  2  0
 24 26  1  0
 26 27  1  0
 26 28  1  0
 28 29  1  0
 29 30  1  0
 13  4  1  0
 23 15  1  0
 30 28  1  0
 12  7  1  0
 22 18  2  0
M  END
>  <AAScore>  (1) 
16.68490624126372

>  <RootName>  (1) 
./4ZLY/04_DeltaGEst/trajectory_04/rank_01/lead_0071

$$$$
