confid_3
     RDKit          3D

 28 32  0  0  0  0  0  0  0  0999 V2000
   24.2000   26.2400   35.6900 N   0  0  0  0  0  0  0  0  0  0  0  0
   24.8500   26.2800   34.4800 C   0  0  0  0  0  0  0  0  0  0  0  0
   24.3100   25.7400   33.5400 O   0  0  0  0  0  0  0  0  0  0  0  0
   26.1800   26.9700   34.4700 C   0  0  0  0  0  0  0  0  0  0  0  0
   26.6500   27.6000   35.5500 N   0  0  0  0  0  0  0  0  0  0  0  0
   27.7900   28.2700   35.6200 N   0  0  0  0  0  0  0  0  0  0  0  0
   28.5400   28.3000   34.5100 C   0  0  0  0  0  0  0  0  0  0  0  0
   29.7700   28.9400   34.5600 C   0  0  0  0  0  0  0  0  0  0  0  0
   30.7000   28.8900   33.5000 C   0  0  0  0  0  0  0  0  0  0  0  0
   30.3700   28.1400   32.3700 C   0  0  0  0  0  0  0  0  0  0  0  0
   29.1200   27.5200   32.2800 C   0  0  0  0  0  0  0  0  0  0  0  0
   28.2100   27.6100   33.3300 C   0  0  0  0  0  0  0  0  0  0  0  0
   26.9700   26.9700   33.3100 C   0  0  0  0  0  0  0  0  0  0  0  0
   26.5300   26.2400   32.2200 N   0  0  0  0  0  0  0  0  0  0  0  0
   23.2311   25.2413   36.0729 C   0  0  0  0  0  0  0  0  0  0  0  0
   23.1011   24.1725   35.3352 N   0  0  0  0  0  0  0  0  0  0  0  0
   22.2547   23.0239   35.4605 C   0  0  0  0  0  0  0  0  0  0  0  0
   22.0858   22.3799   36.6058 C   0  0  0  0  0  0  0  0  0  0  0  0
   21.6145   21.0296   37.0588 C   0  0  0  0  0  0  0  0  0  0  0  0
   21.9325   21.2307   38.3975 O   0  0  0  0  0  0  0  0  0  0  0  0
   22.3490   22.5197   38.0734 C   0  0  2  0  0  0  0  0  0  0  0  0
   21.4203   23.5448   38.7208 C   0  0  0  0  0  0  0  0  0  0  0  0
   21.6687   24.9389   38.2514 C   0  0  0  0  0  0  0  0  0  0  0  0
   22.3602   25.5617   37.2281 C   0  0  0  0  0  0  0  0  0  0  0  0
   21.9485   26.8449   37.7854 C   0  0  2  0  0  0  0  0  0  0  0  0
   21.1782   26.2396   38.8114 C   0  0  0  0  0  0  0  0  0  0  0  0
   20.4442   26.6154   39.7624 O   0  0  0  0  0  0  0  0  0  0  0  0
   21.0951   27.6636   36.8123 C   0  0  0  0  0  0  0  0  0  0  0  0
  1  2  1  0
  2  3  2  0
  2  4  1  0
  4  5  2  0
  5  6  1  0
  6  7  2  0
  7  8  1  0
  8  9  2  0
  9 10  1  0
 10 11  2  0
 11 12  1  0
 12 13  2  0
 13 14  1  0
  1 15  1  0
 15 16  2  0
 16 17  1  0
 17 18  2  0
 18 19  1  0
 19 20  1  0
 20 21  1  0
 21 22  1  1
 22 23  1  0
 23 24  2  0
 24 25  1  0
 25 26  1  0
 26 27  2  0
 25 28  1  6
 13  4  1  0
 24 15  1  0
 12  7  1  0
 21 18  1  0
 26 23  1  0
M  END
>  <AAScore>  (1) 
8206.525237741234

>  <RootName>  (1) 
./4ZLY/04_DeltaGEst/trajectory_04/rank_00/lead_0374

$$$$
