confid_14
     RDKit          3D

 27 30  0  0  0  0  0  0  0  0999 V2000
   24.2000   26.2400   35.6900 N   0  0  0  0  0  0  0  0  0  0  0  0
   24.8500   26.2800   34.4800 C   0  0  0  0  0  0  0  0  0  0  0  0
   24.3100   25.7400   33.5400 O   0  0  0  0  0  0  0  0  0  0  0  0
   26.1800   26.9700   34.4700 C   0  0  0  0  0  0  0  0  0  0  0  0
   26.6500   27.6000   35.5500 N   0  0  0  0  0  0  0  0  0  0  0  0
   27.7900   28.2700   35.6200 N   0  0  0  0  0  0  0  0  0  0  0  0
   28.5400   28.3000   34.5100 C   0  0  0  0  0  0  0  0  0  0  0  0
   29.7700   28.9400   34.5600 C   0  0  0  0  0  0  0  0  0  0  0  0
   30.7000   28.8900   33.5000 C   0  0  0  0  0  0  0  0  0  0  0  0
   30.3700   28.1400   32.3700 C   0  0  0  0  0  0  0  0  0  0  0  0
   29.1200   27.5200   32.2800 C   0  0  0  0  0  0  0  0  0  0  0  0
   28.2100   27.6100   33.3300 C   0  0  0  0  0  0  0  0  0  0  0  0
   26.9700   26.9700   33.3100 C   0  0  0  0  0  0  0  0  0  0  0  0
   26.5300   26.2400   32.2200 N   0  0  0  0  0  0  0  0  0  0  0  0
   30.1377   29.6691   35.7430 N   0  0  0  0  0  0  0  0  0  0  0  0
   29.4612   30.9314   36.0690 C   0  0  0  0  0  0  0  0  0  0  0  0
   29.0671   30.9541   37.5535 C   0  0  0  0  0  0  0  0  0  0  0  0
   30.1126   30.3634   38.4058 N   0  0  0  0  0  0  0  0  0  0  0  0
   29.7745   29.8715   39.7181 C   0  0  0  0  0  0  0  0  0  0  0  0
   30.1845   28.6687   40.2609 C   0  0  0  0  0  0  0  0  0  0  0  0
   29.5794   28.6087   41.5012 C   0  0  0  0  0  0  0  0  0  0  0  0
   29.7069   27.4834   42.4716 C   0  0  0  0  0  0  0  0  0  0  0  0
   28.8553   29.6855   41.7128 O   0  0  0  0  0  0  0  0  0  0  0  0
   28.9510   30.4694   40.6624 C   0  0  0  0  0  0  0  0  0  0  0  0
   28.2623   31.7906   40.5617 C   0  0  0  0  0  0  0  0  0  0  0  0
   31.4233   30.0552   37.8191 C   0  0  0  0  0  0  0  0  0  0  0  0
   31.2327   29.1690   36.5863 C   0  0  0  0  0  0  0  0  0  0  0  0
  1  2  1  0
  2  3  2  0
  2  4  1  0
  4  5  2  0
  5  6  1  0
  6  7  2  0
  7  8  1  0
  8  9  2  0
  9 10  1  0
 10 11  2  0
 11 12  1  0
 12 13  2  0
 13 14  1  0
  8 15  1  0
 15 16  1  0
 16 17  1  0
 17 18  1  0
 18 19  1  0
 19 20  1  0
 20 21  2  0
 21 22  1  0
 21 23  1  0
 23 24  1  0
 24 25  1  0
 18 26  1  0
 26 27  1  0
 13  4  1  0
 27 15  1  0
 12  7  1  0
 24 19  2  0
M  END
>  <AAScore>  (1) 
-8.696940082001518

>  <RootName>  (1) 
./4ZLY/04_DeltaGEst/trajectory_04/rank_01/lead_0264

$$$$
