confid_13
     RDKit          3D

 27 29  0  0  0  0  0  0  0  0999 V2000
   24.5700   26.8800   35.5900 N   0  0  0  0  0  0  0  0  0  0  0  0
   25.5000   26.4000   34.6900 C   0  0  0  0  0  0  0  0  0  0  0  0
   25.1700   25.5200   33.9100 O   0  0  0  0  0  0  0  0  0  0  0  0
   26.8400   27.0200   34.7400 C   0  0  0  0  0  0  0  0  0  0  0  0
   27.3800   27.2800   35.9400 N   0  0  0  0  0  0  0  0  0  0  0  0
   28.6200   27.7400   36.0300 N   0  0  0  0  0  0  0  0  0  0  0  0
   29.3800   28.0000   34.9600 C   0  0  0  0  0  0  0  0  0  0  0  0
   30.6700   28.5000   35.1300 C   0  0  0  0  0  0  0  0  0  0  0  0
   31.5400   28.6100   34.0300 C   0  0  0  0  0  0  0  0  0  0  0  0
   31.0900   28.2200   32.7700 C   0  0  0  0  0  0  0  0  0  0  0  0
   29.8000   27.7000   32.6000 C   0  0  0  0  0  0  0  0  0  0  0  0
   28.9600   27.5500   33.7100 C   0  0  0  0  0  0  0  0  0  0  0  0
   27.6600   27.0300   33.5900 C   0  0  0  0  0  0  0  0  0  0  0  0
   27.1600   26.7400   32.3400 N   0  0  0  0  0  0  0  0  0  0  0  0
   33.1615   29.2681   34.2235 S   0  0  0  0  0  6  0  0  0  0  0  0
   34.1296   28.4282   33.4386 O   0  0  0  0  0  0  0  0  0  0  0  0
   33.5594   29.2339   35.6734 O   0  0  0  0  0  0  0  0  0  0  0  0
   33.1850   30.9601   33.6206 C   0  0  1  0  0  0  0  0  0  0  0  0
   32.2503   31.8741   34.4283 C   0  0  0  0  0  0  0  0  0  0  0  0
   33.0779   32.9405   35.0090 N   0  0  0  0  0  0  0  0  0  0  0  0
   34.2565   33.0599   34.1307 C   0  0  2  0  0  0  0  0  0  0  0  0
   34.0085   33.9674   32.8948 C   0  0  0  0  0  0  0  0  0  0  0  0
   34.5690   31.6049   33.7504 C   0  0  2  0  0  0  0  0  0  0  0  0
   35.4529   31.4092   32.5084 C   0  0  0  0  0  0  0  0  0  0  0  0
   32.3306   34.1921   35.2160 C   0  0  0  0  0  3  0  0  0  0  0  0
   31.3637   34.0659   36.3960 C   0  0  0  0  0  0  0  0  0  0  0  0
   30.6109   35.3727   36.6169 C   0  0  0  0  0  0  0  0  0  0  0  0
  1  2  1  0
  2  3  2  0
  2  4  1  0
  4  5  2  0
  5  6  1  0
  6  7  2  0
  7  8  1  0
  8  9  2  0
  9 10  1  0
 10 11  2  0
 11 12  1  0
 12 13  2  0
 13 14  1  0
  9 15  1  0
 15 16  2  0
 15 17  2  0
 18 15  1  1
 18 19  1  0
 19 20  1  0
 20 21  1  0
 21 22  1  6
 21 23  1  0
 23 24  1  6
 20 25  1  0
 25 26  1  0
 26 27  1  0
 13  4  1  0
 23 18  1  0
 12  7  1  0
M  RAD  1  25   2
M  END
>  <AAScore>  (1) 
-5.35702801549868

>  <RootName>  (1) 
./4ZLY/04_DeltaGEst/trajectory_05/rank_01/lead_0270

$$$$
