confid_16
     RDKit          3D

 28 31  0  0  0  0  0  0  0  0999 V2000
   24.5700   26.8800   35.5900 N   0  0  0  0  0  0  0  0  0  0  0  0
   25.5000   26.4000   34.6900 C   0  0  0  0  0  0  0  0  0  0  0  0
   25.1700   25.5200   33.9100 O   0  0  0  0  0  0  0  0  0  0  0  0
   26.8400   27.0200   34.7400 C   0  0  0  0  0  0  0  0  0  0  0  0
   27.3800   27.2800   35.9400 N   0  0  0  0  0  0  0  0  0  0  0  0
   28.6200   27.7400   36.0300 N   0  0  0  0  0  0  0  0  0  0  0  0
   29.3800   28.0000   34.9600 C   0  0  0  0  0  0  0  0  0  0  0  0
   30.6700   28.5000   35.1300 C   0  0  0  0  0  0  0  0  0  0  0  0
   31.5400   28.6100   34.0300 C   0  0  0  0  0  0  0  0  0  0  0  0
   31.0900   28.2200   32.7700 C   0  0  0  0  0  0  0  0  0  0  0  0
   29.8000   27.7000   32.6000 C   0  0  0  0  0  0  0  0  0  0  0  0
   28.9600   27.5500   33.7100 C   0  0  0  0  0  0  0  0  0  0  0  0
   27.6600   27.0300   33.5900 C   0  0  0  0  0  0  0  0  0  0  0  0
   27.1600   26.7400   32.3400 N   0  0  0  0  0  0  0  0  0  0  0  0
   32.9136   29.1450   34.2066 C   0  0  0  0  0  0  0  0  0  0  0  0
   33.1561   30.2431   35.0488 C   0  0  0  0  0  0  0  0  0  0  0  0
   34.4126   30.7442   35.1785 N   0  0  0  0  0  0  0  0  0  0  0  0
   35.4761   30.2092   34.5195 C   0  0  0  0  0  0  0  0  0  0  0  0
   35.2850   29.0981   33.6886 C   0  0  0  0  0  0  0  0  0  0  0  0
   34.0027   28.5723   33.5295 C   0  0  0  0  0  0  0  0  0  0  0  0
   36.8331   30.8483   34.6537 C   0  0  0  0  0  0  0  0  0  0  0  0
   37.0231   32.0144   33.7610 N   0  0  0  0  0  0  0  0  0  0  0  0
   37.1232   31.6933   32.3215 C   0  0  0  0  0  0  0  0  0  0  0  0
   35.7556   31.6551   31.6002 C   0  0  0  0  0  0  0  0  0  0  0  0
   34.6642   32.1661   32.4493 N   0  0  0  0  0  0  0  0  0  0  0  0
   33.4334   32.3287   31.6624 C   0  0  0  0  0  0  0  0  0  0  0  0
   35.0602   33.4383   33.0669 C   0  0  0  0  0  0  0  0  0  0  0  0
   36.1920   33.1988   34.0810 C   0  0  0  0  0  0  0  0  0  0  0  0
  1  2  1  0
  2  3  2  0
  2  4  1  0
  4  5  2  0
  5  6  1  0
  6  7  2  0
  7  8  1  0
  8  9  2  0
  9 10  1  0
 10 11  2  0
 11 12  1  0
 12 13  2  0
 13 14  1  0
  9 15  1  0
 15 16  2  0
 16 17  1  0
 17 18  2  0
 18 19  1  0
 19 20  2  0
 18 21  1  0
 21 22  1  0
 22 23  1  0
 23 24  1  0
 24 25  1  0
 25 26  1  0
 25 27  1  0
 27 28  1  0
 13  4  1  0
 20 15  1  0
 28 22  1  0
 12  7  1  0
M  END
>  <AAScore>  (1) 
-5.939124823398893

>  <RootName>  (1) 
./4ZLY/04_DeltaGEst/trajectory_05/rank_01/lead_0006

$$$$
