confid_9
     RDKit          3D

 28 31  0  0  0  0  0  0  0  0999 V2000
   24.5500   26.3900   36.2500 N   0  0  0  0  0  0  0  0  0  0  0  0
   25.6000   26.1300   35.4000 C   0  0  0  0  0  0  0  0  0  0  0  0
   25.4300   25.4300   34.4200 O   0  0  0  0  0  0  0  0  0  0  0  0
   26.9800   26.6300   35.7100 C   0  0  0  0  0  0  0  0  0  0  0  0
   27.3200   26.8200   36.9800 N   0  0  0  0  0  0  0  0  0  0  0  0
   28.4700   27.4000   37.3100 N   0  0  0  0  0  0  0  0  0  0  0  0
   29.4000   27.6300   36.3700 C   0  0  0  0  0  0  0  0  0  0  0  0
   30.6600   28.0500   36.8000 C   0  0  0  0  0  0  0  0  0  0  0  0
   31.5700   28.3600   35.7800 C   0  0  0  0  0  0  0  0  0  0  0  0
   31.3700   28.1000   34.4300 C   0  0  0  0  0  0  0  0  0  0  0  0
   30.1200   27.5900   34.0500 C   0  0  0  0  0  0  0  0  0  0  0  0
   29.1500   27.3400   35.0300 C   0  0  0  0  0  0  0  0  0  0  0  0
   27.8800   26.8900   34.6600 C   0  0  0  0  0  0  0  0  0  0  0  0
   27.4800   26.6100   33.3700 N   0  0  0  0  0  0  0  0  0  0  0  0
   23.1695   26.0789   35.9545 C   0  0  0  0  0  0  0  0  0  0  0  0
   22.7898   25.8852   34.6690 N   0  0  0  0  0  0  0  0  0  0  0  0
   21.5134   25.6167   34.3179 C   0  0  0  0  0  0  0  0  0  0  0  0
   20.4948   25.5213   35.2794 C   0  0  0  0  0  0  0  0  0  0  0  0
   19.1231   25.2074   34.6890 C   0  0  0  0  0  0  0  0  0  0  0  0
   18.0458   24.9690   35.6604 N   0  0  0  0  0  0  0  0  0  0  0  0
   16.8087   24.5981   34.9517 C   0  0  0  0  0  0  0  0  0  0  0  0
   17.8286   26.1574   36.4969 C   0  0  0  0  0  0  0  0  0  0  0  0
   18.5646   25.9337   37.7591 C   0  0  0  0  0  0  0  0  0  0  0  0
   19.8681   25.6602   37.8003 C   0  0  0  0  0  0  0  0  0  0  0  0
   20.8374   25.7318   36.6566 C   0  0  0  0  0  0  0  0  0  0  0  0
   22.1997   26.0114   36.9765 C   0  0  0  0  0  0  0  0  0  0  0  0
   22.6143   26.2398   38.3475 C   0  0  0  0  0  0  0  0  0  0  0  0
   22.9461   26.4222   39.4413 N   0  0  0  0  0  0  0  0  0  0  0  0
  1  2  1  0
  2  3  2  0
  2  4  1  0
  4  5  2  0
  5  6  1  0
  6  7  2  0
  7  8  1  0
  8  9  2  0
  9 10  1  0
 10 11  2  0
 11 12  1  0
 12 13  2  0
 13 14  1  0
  1 15  1  0
 15 16  2  0
 16 17  1  0
 17 18  2  0
 18 19  1  0
 19 20  1  0
 20 21  1  0
 20 22  1  0
 22 23  1  0
 23 24  2  0
 24 25  1  0
 25 26  2  0
 26 27  1  0
 27 28  3  0
 13  4  1  0
 26 15  1  0
 12  7  1  0
 25 18  1  0
M  END
>  <AAScore>  (1) 
8445.928571100867

>  <RootName>  (1) 
./4ZLY/04_DeltaGEst/trajectory_01/rank_00/lead_0400

$$$$
