confid_8
     RDKit          3D

 27 30  0  0  0  0  0  0  0  0999 V2000
   24.6900   26.1200   35.5300 N   0  0  0  0  0  0  0  0  0  0  0  0
   25.6600   25.6700   34.6600 C   0  0  0  0  0  0  0  0  0  0  0  0
   25.2400   25.0100   33.7200 O   0  0  0  0  0  0  0  0  0  0  0  0
   27.0300   26.2200   34.8800 C   0  0  0  0  0  0  0  0  0  0  0  0
   27.3500   26.7300   36.0700 N   0  0  0  0  0  0  0  0  0  0  0  0
   28.5700   27.1800   36.3300 N   0  0  0  0  0  0  0  0  0  0  0  0
   29.5300   27.1100   35.3900 C   0  0  0  0  0  0  0  0  0  0  0  0
   30.8300   27.5700   35.6500 C   0  0  0  0  0  0  0  0  0  0  0  0
   31.8500   27.5400   34.6900 C   0  0  0  0  0  0  0  0  0  0  0  0
   31.5100   27.1200   33.4000 C   0  0  0  0  0  0  0  0  0  0  0  0
   30.2200   26.6300   33.1100 C   0  0  0  0  0  0  0  0  0  0  0  0
   29.2400   26.6600   34.1000 C   0  0  0  0  0  0  0  0  0  0  0  0
   27.9300   26.2600   33.8100 C   0  0  0  0  0  0  0  0  0  0  0  0
   27.5200   25.7100   32.6100 N   0  0  0  0  0  0  0  0  0  0  0  0
   23.5778   25.3082   35.9686 C   0  0  0  0  0  0  0  0  0  0  0  0
   23.4676   24.0251   35.5225 N   0  0  0  0  0  0  0  0  0  0  0  0
   22.4468   23.2026   35.8818 C   0  0  0  0  0  0  0  0  0  0  0  0
   22.3827   21.8873   35.4068 O   0  0  0  0  0  0  0  0  0  0  0  0
   23.3804   21.3009   34.5726 C   0  0  0  0  0  0  0  0  0  0  0  0
   24.6297   20.9645   35.3786 C   0  0  0  0  0  0  0  0  0  0  0  0
   21.4488   23.6739   36.7311 C   0  0  0  0  0  0  0  0  0  0  0  0
   21.5135   24.9853   37.2121 C   0  0  0  0  0  0  0  0  0  0  0  0
   22.6055   25.8077   36.8697 C   0  0  0  0  0  0  0  0  0  0  0  0
   22.6773   27.2113   37.4282 C   0  0  0  0  0  0  0  0  0  0  0  0
   21.6624   27.4230   38.5583 C   0  0  0  0  0  0  0  0  0  0  0  0
   20.4010   26.9019   38.1918 O   0  0  0  0  0  0  0  0  0  0  0  0
   20.4597   25.4874   38.1692 C   0  0  0  0  0  0  0  0  0  0  0  0
  1  2  1  0
  2  3  2  0
  2  4  1  0
  4  5  2  0
  5  6  1  0
  6  7  2  0
  7  8  1  0
  8  9  2  0
  9 10  1  0
 10 11  2  0
 11 12  1  0
 12 13  2  0
 13 14  1  0
  1 15  1  0
 15 16  2  0
 16 17  1  0
 17 18  1  0
 18 19  1  0
 19 20  1  0
 17 21  2  0
 21 22  1  0
 22 23  2  0
 23 24  1  0
 24 25  1  0
 25 26  1  0
 26 27  1  0
 13  4  1  0
 23 15  1  0
 12  7  1  0
 27 22  1  0
M  END
>  <AAScore>  (1) 
3363.5158547468523

>  <RootName>  (1) 
./4ZLY/04_DeltaGEst/trajectory_02/rank_00/lead_0440

$$$$
