confid_14
     RDKit          3D

 27 30  0  0  0  0  0  0  0  0999 V2000
   24.5500   26.3900   36.2500 N   0  0  0  0  0  0  0  0  0  0  0  0
   25.6000   26.1300   35.4000 C   0  0  0  0  0  0  0  0  0  0  0  0
   25.4300   25.4300   34.4200 O   0  0  0  0  0  0  0  0  0  0  0  0
   26.9800   26.6300   35.7100 C   0  0  0  0  0  0  0  0  0  0  0  0
   27.3200   26.8200   36.9800 N   0  0  0  0  0  0  0  0  0  0  0  0
   28.4700   27.4000   37.3100 N   0  0  0  0  0  0  0  0  0  0  0  0
   29.4000   27.6300   36.3700 C   0  0  0  0  0  0  0  0  0  0  0  0
   30.6600   28.0500   36.8000 C   0  0  0  0  0  0  0  0  0  0  0  0
   31.5700   28.3600   35.7800 C   0  0  0  0  0  0  0  0  0  0  0  0
   31.3700   28.1000   34.4300 C   0  0  0  0  0  0  0  0  0  0  0  0
   30.1200   27.5900   34.0500 C   0  0  0  0  0  0  0  0  0  0  0  0
   29.1500   27.3400   35.0300 C   0  0  0  0  0  0  0  0  0  0  0  0
   27.8800   26.8900   34.6600 C   0  0  0  0  0  0  0  0  0  0  0  0
   27.4800   26.6100   33.3700 N   0  0  0  0  0  0  0  0  0  0  0  0
   23.1741   26.1407   35.9231 C   0  0  0  0  0  0  0  0  0  0  0  0
   22.7440   26.0789   34.7052 N   0  0  0  0  0  0  0  0  0  0  0  0
   21.3314   25.9668   34.7690 C   0  0  0  0  0  0  0  0  0  0  0  0
   20.9027   25.9648   36.0223 C   0  0  0  0  0  0  0  0  0  0  0  0
   19.4603   25.9156   36.4343 C   0  0  0  0  0  0  0  0  0  0  0  0
   19.2614   24.9612   37.5465 N   0  0  0  0  0  0  0  0  0  0  0  0
   17.8217   24.6973   37.7099 C   0  0  0  0  0  0  0  0  0  0  0  0
   19.8347   25.4787   38.8127 C   0  0  0  0  0  0  0  0  0  0  0  0
   21.2412   24.9124   39.0809 C   0  0  0  0  0  0  0  0  0  0  0  0
   22.1945   24.8526   37.8687 C   0  0  0  0  0  0  0  0  0  0  0  0
   23.4876   24.7635   38.3576 F   0  0  0  0  0  0  0  0  0  0  0  0
   21.9415   23.6925   37.1496 F   0  0  0  0  0  0  0  0  0  0  0  0
   22.0755   26.0881   36.9455 C   0  0  1  0  0  0  0  0  0  0  0  0
  1  2  1  0
  2  3  2  0
  2  4  1  0
  4  5  2  0
  5  6  1  0
  6  7  2  0
  7  8  1  0
  8  9  2  0
  9 10  1  0
 10 11  2  0
 11 12  1  0
 12 13  2  0
 13 14  1  0
  1 15  1  0
 15 16  2  0
 16 17  1  0
 17 18  2  0
 18 19  1  0
 19 20  1  0
 20 21  1  0
 20 22  1  0
 22 23  1  0
 23 24  1  0
 24 25  1  0
 24 26  1  0
 27 24  1  1
 13  4  1  0
 27 15  1  0
 12  7  1  0
 27 18  1  0
M  END
>  <AAScore>  (1) 
151.7688984011508

>  <RootName>  (1) 
./4ZLY/04_DeltaGEst/trajectory_01/rank_00/lead_0253

$$$$
