confid_13
     RDKit          3D

 28 31  0  0  0  0  0  0  0  0999 V2000
   24.5500   26.3900   36.2500 N   0  0  0  0  0  0  0  0  0  0  0  0
   25.6000   26.1300   35.4000 C   0  0  0  0  0  0  0  0  0  0  0  0
   25.4300   25.4300   34.4200 O   0  0  0  0  0  0  0  0  0  0  0  0
   26.9800   26.6300   35.7100 C   0  0  0  0  0  0  0  0  0  0  0  0
   27.3200   26.8200   36.9800 N   0  0  0  0  0  0  0  0  0  0  0  0
   28.4700   27.4000   37.3100 N   0  0  0  0  0  0  0  0  0  0  0  0
   29.4000   27.6300   36.3700 C   0  0  0  0  0  0  0  0  0  0  0  0
   30.6600   28.0500   36.8000 C   0  0  0  0  0  0  0  0  0  0  0  0
   31.5700   28.3600   35.7800 C   0  0  0  0  0  0  0  0  0  0  0  0
   31.3700   28.1000   34.4300 C   0  0  0  0  0  0  0  0  0  0  0  0
   30.1200   27.5900   34.0500 C   0  0  0  0  0  0  0  0  0  0  0  0
   29.1500   27.3400   35.0300 C   0  0  0  0  0  0  0  0  0  0  0  0
   27.8800   26.8900   34.6600 C   0  0  0  0  0  0  0  0  0  0  0  0
   27.4800   26.6100   33.3700 N   0  0  0  0  0  0  0  0  0  0  0  0
   23.2137   25.8667   36.1070 C   0  0  0  0  0  0  0  0  0  0  0  0
   22.9033   25.0055   35.1057 N   0  0  0  0  0  0  0  0  0  0  0  0
   21.6568   24.4964   34.9504 C   0  0  0  0  0  0  0  0  0  0  0  0
   20.6134   24.8462   35.8291 C   0  0  0  0  0  0  0  0  0  0  0  0
   19.3011   24.1775   35.6112 C   0  0  0  0  0  0  0  0  0  0  0  0
   19.2938   23.0070   35.1387 O   0  0  0  0  0  0  0  0  0  0  0  0
   17.9714   24.8055   35.9055 C   0  0  0  0  0  0  0  0  0  0  0  0
   17.3768   24.2550   37.2095 C   0  0  0  0  0  0  0  0  0  0  0  0
   17.7432   25.0735   38.4545 C   0  0  0  0  0  0  0  0  0  0  0  0
   19.1924   25.2047   38.6909 N   0  0  0  0  0  0  0  0  0  0  0  0
   19.8871   26.2484   37.9074 C   0  0  0  0  0  0  0  0  0  0  0  0
   20.9080   25.7420   36.8973 C   0  0  0  0  0  0  0  0  0  0  0  0
   22.2189   26.2449   37.0126 C   0  0  0  0  0  0  0  0  0  0  0  0
   19.9204   23.9599   38.9792 C   0  0  0  0  0  0  0  0  0  0  0  0
  1  2  1  0
  2  3  2  0
  2  4  1  0
  4  5  2  0
  5  6  1  0
  6  7  2  0
  7  8  1  0
  8  9  2  0
  9 10  1  0
 10 11  2  0
 11 12  1  0
 12 13  2  0
 13 14  1  0
  1 15  1  0
 15 16  2  0
 16 17  1  0
 17 18  2  0
 18 19  1  0
 19 20  2  0
 19 21  1  0
 21 22  1  0
 22 23  1  0
 23 24  1  0
 24 25  1  0
 25 26  1  0
 26 27  2  0
 24 28  1  0
 13  4  1  0
 27 15  1  0
 12  7  1  0
 26 18  1  0
M  END
>  <AAScore>  (1) 
1853.2040229348595

>  <RootName>  (1) 
./4ZLY/04_DeltaGEst/trajectory_01/rank_00/lead_0031

$$$$
