confid_3
     RDKit          3D

 28 31  0  0  0  0  0  0  0  0999 V2000
   24.5700   26.8800   35.5900 N   0  0  0  0  0  0  0  0  0  0  0  0
   25.5000   26.4000   34.6900 C   0  0  0  0  0  0  0  0  0  0  0  0
   25.1700   25.5200   33.9100 O   0  0  0  0  0  0  0  0  0  0  0  0
   26.8400   27.0200   34.7400 C   0  0  0  0  0  0  0  0  0  0  0  0
   27.3800   27.2800   35.9400 N   0  0  0  0  0  0  0  0  0  0  0  0
   28.6200   27.7400   36.0300 N   0  0  0  0  0  0  0  0  0  0  0  0
   29.3800   28.0000   34.9600 C   0  0  0  0  0  0  0  0  0  0  0  0
   30.6700   28.5000   35.1300 C   0  0  0  0  0  0  0  0  0  0  0  0
   31.5400   28.6100   34.0300 C   0  0  0  0  0  0  0  0  0  0  0  0
   31.0900   28.2200   32.7700 C   0  0  0  0  0  0  0  0  0  0  0  0
   29.8000   27.7000   32.6000 C   0  0  0  0  0  0  0  0  0  0  0  0
   28.9600   27.5500   33.7100 C   0  0  0  0  0  0  0  0  0  0  0  0
   27.6600   27.0300   33.5900 C   0  0  0  0  0  0  0  0  0  0  0  0
   27.1600   26.7400   32.3400 N   0  0  0  0  0  0  0  0  0  0  0  0
   23.1507   26.7087   35.4468 C   0  0  0  0  0  0  0  0  0  0  0  0
   22.3979   26.7009   36.5390 N   0  0  0  0  0  0  0  0  0  0  0  0
   20.9495   26.5591   36.5482 C   0  0  0  0  0  0  0  0  0  0  0  0
   20.3672   26.4472   35.3710 C   0  0  0  0  0  0  0  0  0  0  0  0
   19.2180   26.2973   34.5321 C   0  0  1  0  0  0  0  0  0  0  0  0
   18.6212   25.0581   34.6973 F   0  0  0  0  0  0  0  0  0  0  0  0
   18.2109   27.4522   34.6396 C   0  0  0  0  0  0  0  0  0  0  0  0
   17.2352   27.3071   33.6699 F   0  0  0  0  0  0  0  0  0  0  0  0
   17.6086   27.4276   35.8847 F   0  0  0  0  0  0  0  0  0  0  0  0
   18.8364   28.6767   34.4672 F   0  0  0  0  0  0  0  0  0  0  0  0
   20.0447   26.3421   33.3274 C   0  0  0  0  0  0  0  0  0  0  0  0
   21.1419   26.4661   34.1398 C   0  0  0  0  0  0  0  0  0  0  0  0
   22.5488   26.6029   34.1224 N   0  0  0  0  0  0  0  0  0  0  0  0
   19.8280   26.2778   31.9915 F   0  0  0  0  0  0  0  0  0  0  0  0
  1  2  1  0
  2  3  2  0
  2  4  1  0
  4  5  2  0
  5  6  1  0
  6  7  2  0
  7  8  1  0
  8  9  2  0
  9 10  1  0
 10 11  2  0
 11 12  1  0
 12 13  2  0
 13 14  1  0
  1 15  1  0
 15 16  2  0
 16 17  1  0
 17 18  2  0
 18 19  1  0
 19 20  1  1
 19 21  1  0
 21 22  1  0
 21 23  1  0
 21 24  1  0
 19 25  1  0
 25 26  2  0
 26 27  1  0
 25 28  1  0
 13  4  1  0
 27 15  1  0
 12  7  1  0
 26 18  1  0
M  END
>  <AAScore>  (1) 
20722.13996045578

>  <RootName>  (1) 
./4ZLY/04_DeltaGEst/trajectory_05/rank_00/lead_0108

$$$$
