confid_7
     RDKit          3D

 31 34  0  0  0  0  0  0  0  0999 V2000
   24.5500   26.3900   36.2500 N   0  0  0  0  0  0  0  0  0  0  0  0
   25.6000   26.1300   35.4000 C   0  0  0  0  0  0  0  0  0  0  0  0
   25.4300   25.4300   34.4200 O   0  0  0  0  0  0  0  0  0  0  0  0
   26.9800   26.6300   35.7100 C   0  0  0  0  0  0  0  0  0  0  0  0
   27.3200   26.8200   36.9800 N   0  0  0  0  0  0  0  0  0  0  0  0
   28.4700   27.4000   37.3100 N   0  0  0  0  0  0  0  0  0  0  0  0
   29.4000   27.6300   36.3700 C   0  0  0  0  0  0  0  0  0  0  0  0
   30.6600   28.0500   36.8000 C   0  0  0  0  0  0  0  0  0  0  0  0
   31.5700   28.3600   35.7800 C   0  0  0  0  0  0  0  0  0  0  0  0
   31.3700   28.1000   34.4300 C   0  0  0  0  0  0  0  0  0  0  0  0
   30.1200   27.5900   34.0500 C   0  0  0  0  0  0  0  0  0  0  0  0
   29.1500   27.3400   35.0300 C   0  0  0  0  0  0  0  0  0  0  0  0
   27.8800   26.8900   34.6600 C   0  0  0  0  0  0  0  0  0  0  0  0
   27.4800   26.6100   33.3700 N   0  0  0  0  0  0  0  0  0  0  0  0
   23.1735   25.9037   36.0648 C   0  0  0  0  0  0  0  0  0  0  0  0
   22.5233   26.5460   34.8236 C   0  0  0  0  0  0  0  0  0  0  0  0
   21.1779   25.8842   34.5117 C   0  0  0  0  0  0  0  0  0  0  0  0
   21.3170   24.4274   34.3649 N   0  0  0  0  0  0  0  0  0  0  0  0
   20.2441   23.6962   33.7413 C   0  0  0  0  0  0  0  0  0  0  0  0
   19.0536   24.0793   33.9058 O   0  0  0  0  0  0  0  0  0  0  0  0
   20.5034   22.5325   32.8214 C   0  0  0  0  0  0  0  0  0  0  0  0
   20.1203   22.8924   31.4416 N   0  0  0  0  0  0  0  0  0  0  0  0
   21.1547   23.7331   30.7956 C   0  0  0  0  0  0  0  0  0  0  0  0
   20.5579   24.5883   29.6526 C   0  0  0  0  0  0  0  0  0  0  0  0
   19.0476   24.3588   29.4182 C   0  0  0  0  0  0  0  0  0  0  0  0
   18.6966   23.0336   28.8373 N   0  0  0  0  0  0  0  0  0  0  0  0
   18.5192   23.1380   27.3791 C   0  0  0  0  0  0  0  0  0  0  0  0
   19.6360   21.9296   29.1452 C   0  0  0  0  0  0  0  0  0  0  0  0
   19.8143   21.6755   30.6569 C   0  0  0  0  0  0  0  0  0  0  0  0
   22.5616   23.7542   34.7671 C   0  0  0  0  0  0  0  0  0  0  0  0
   23.1066   24.3517   36.0726 C   0  0  0  0  0  0  0  0  0  0  0  0
  1  2  1  0
  2  3  2  0
  2  4  1  0
  4  5  2  0
  5  6  1  0
  6  7  2  0
  7  8  1  0
  8  9  2  0
  9 10  1  0
 10 11  2  0
 11 12  1  0
 12 13  2  0
 13 14  1  0
  1 15  1  0
 15 16  1  0
 16 17  1  0
 17 18  1  0
 18 19  1  0
 19 20  2  0
 19 21  1  0
 21 22  1  0
 22 23  1  0
 23 24  1  0
 24 25  1  0
 25 26  1  0
 26 27  1  0
 26 28  1  0
 28 29  1  0
 18 30  1  0
 30 31  1  0
 13  4  1  0
 31 15  1  0
 12  7  1  0
 29 22  1  0
M  END
>  <AAScore>  (1) 
506.6026004394852

>  <RootName>  (1) 
./4ZLY/04_DeltaGEst/trajectory_01/rank_00/lead_0287

$$$$
