confid_16
     RDKit          3D

 30 33  0  0  0  0  0  0  0  0999 V2000
   24.5500   26.3900   36.2500 N   0  0  0  0  0  0  0  0  0  0  0  0
   25.6000   26.1300   35.4000 C   0  0  0  0  0  0  0  0  0  0  0  0
   25.4300   25.4300   34.4200 O   0  0  0  0  0  0  0  0  0  0  0  0
   26.9800   26.6300   35.7100 C   0  0  0  0  0  0  0  0  0  0  0  0
   27.3200   26.8200   36.9800 N   0  0  0  0  0  0  0  0  0  0  0  0
   28.4700   27.4000   37.3100 N   0  0  0  0  0  0  0  0  0  0  0  0
   29.4000   27.6300   36.3700 C   0  0  0  0  0  0  0  0  0  0  0  0
   30.6600   28.0500   36.8000 C   0  0  0  0  0  0  0  0  0  0  0  0
   31.5700   28.3600   35.7800 C   0  0  0  0  0  0  0  0  0  0  0  0
   31.3700   28.1000   34.4300 C   0  0  0  0  0  0  0  0  0  0  0  0
   30.1200   27.5900   34.0500 C   0  0  0  0  0  0  0  0  0  0  0  0
   29.1500   27.3400   35.0300 C   0  0  0  0  0  0  0  0  0  0  0  0
   27.8800   26.8900   34.6600 C   0  0  0  0  0  0  0  0  0  0  0  0
   27.4800   26.6100   33.3700 N   0  0  0  0  0  0  0  0  0  0  0  0
   31.0053   28.2809   38.2260 C   0  0  0  0  0  0  0  0  0  0  0  0
   30.8121   27.2695   39.1766 C   0  0  0  0  0  0  0  0  0  0  0  0
   31.1368   27.4669   40.5328 C   0  0  0  0  0  0  0  0  0  0  0  0
   30.8235   26.3399   41.4996 C   0  0  0  0  0  0  0  0  0  0  0  0
   32.0822   25.7304   42.1424 C   0  0  0  0  0  0  0  0  0  0  0  0
   31.8065   25.3364   43.5395 N   0  0  0  0  0  0  0  0  0  0  0  0
   31.7761   26.3253   44.6440 C   0  0  0  0  0  0  0  0  0  0  0  0
   32.3213   27.7163   44.2904 C   0  0  0  0  0  0  0  0  0  0  0  0
   31.4787   28.3303   43.3298 O   0  0  0  0  0  0  0  0  0  0  0  0
   32.2051   29.0242   42.3333 C   0  0  0  0  0  0  0  0  0  0  0  0
   31.6802   28.7247   40.9397 C   0  0  0  0  0  0  0  0  0  0  0  0
   31.8880   29.7178   39.9654 C   0  0  0  0  0  0  0  0  0  0  0  0
   31.5499   29.5033   38.6309 C   0  0  0  0  0  0  0  0  0  0  0  0
   31.3787   23.9872   43.8517 C   0  0  0  0  0  0  0  0  0  0  0  0
   31.1350   23.6685   45.0480 O   0  0  0  0  0  0  0  0  0  0  0  0
   31.2247   22.9305   42.7971 C   0  0  0  0  0  0  0  0  0  0  0  0
  1  2  1  0
  2  3  2  0
  2  4  1  0
  4  5  2  0
  5  6  1  0
  6  7  2  0
  7  8  1  0
  8  9  2  0
  9 10  1  0
 10 11  2  0
 11 12  1  0
 12 13  2  0
 13 14  1  0
  8 15  1  0
 15 16  2  0
 16 17  1  0
 17 18  1  0
 18 19  1  0
 19 20  1  0
 20 21  1  0
 21 22  1  0
 22 23  1  0
 23 24  1  0
 24 25  1  0
 25 26  1  0
 26 27  2  0
 20 28  1  0
 28 29  2  0
 28 30  1  0
 13  4  1  0
 27 15  1  0
 12  7  1  0
 25 17  2  0
M  END
>  <AAScore>  (1) 
109.98726508722254

>  <RootName>  (1) 
./4ZLY/04_DeltaGEst/trajectory_01/rank_01/lead_0058

$$$$
