confid_7
     RDKit          3D

 27 30  0  0  0  0  0  0  0  0999 V2000
   24.5500   26.3900   36.2500 N   0  0  0  0  0  0  0  0  0  0  0  0
   25.6000   26.1300   35.4000 C   0  0  0  0  0  0  0  0  0  0  0  0
   25.4300   25.4300   34.4200 O   0  0  0  0  0  0  0  0  0  0  0  0
   26.9800   26.6300   35.7100 C   0  0  0  0  0  0  0  0  0  0  0  0
   27.3200   26.8200   36.9800 N   0  0  0  0  0  0  0  0  0  0  0  0
   28.4700   27.4000   37.3100 N   0  0  0  0  0  0  0  0  0  0  0  0
   29.4000   27.6300   36.3700 C   0  0  0  0  0  0  0  0  0  0  0  0
   30.6600   28.0500   36.8000 C   0  0  0  0  0  0  0  0  0  0  0  0
   31.5700   28.3600   35.7800 C   0  0  0  0  0  0  0  0  0  0  0  0
   31.3700   28.1000   34.4300 C   0  0  0  0  0  0  0  0  0  0  0  0
   30.1200   27.5900   34.0500 C   0  0  0  0  0  0  0  0  0  0  0  0
   29.1500   27.3400   35.0300 C   0  0  0  0  0  0  0  0  0  0  0  0
   27.8800   26.8900   34.6600 C   0  0  0  0  0  0  0  0  0  0  0  0
   27.4800   26.6100   33.3700 N   0  0  0  0  0  0  0  0  0  0  0  0
   31.0070   28.3131   38.2185 C   0  0  0  0  0  0  0  0  0  0  0  0
   32.1904   27.7675   38.7593 C   0  0  0  0  0  0  0  0  0  0  0  0
   32.5109   28.0365   40.0893 C   0  0  0  0  0  0  0  0  0  0  0  0
   33.7025   27.5466   40.8640 C   0  0  0  0  0  0  0  0  0  0  0  0
   33.5170   28.1682   42.1758 N   0  0  0  0  0  0  0  0  0  0  0  0
   32.3011   28.9043   42.1785 C   0  0  0  0  0  0  0  0  0  0  0  0
   31.8387   29.5035   43.1848 O   0  0  0  0  0  0  0  0  0  0  0  0
   31.6916   28.8279   40.8698 C   0  0  0  0  0  0  0  0  0  0  0  0
   30.5187   29.3943   40.3652 C   0  0  0  0  0  0  0  0  0  0  0  0
   29.4847   30.4137   41.3526 Cl  0  0  0  0  0  0  0  0  0  0  0  0
   30.1824   29.1348   39.0260 C   0  0  0  0  0  0  0  0  0  0  0  0
   34.2288   27.8483   43.2887 O   0  0  0  0  0  0  0  0  0  0  0  0
   35.2545   28.8028   43.3946 C   0  0  0  0  0  0  0  0  0  0  0  0
  1  2  1  0
  2  3  2  0
  2  4  1  0
  4  5  2  0
  5  6  1  0
  6  7  2  0
  7  8  1  0
  8  9  2  0
  9 10  1  0
 10 11  2  0
 11 12  1  0
 12 13  2  0
 13 14  1  0
  8 15  1  0
 15 16  2  0
 16 17  1  0
 17 18  1  0
 18 19  1  0
 19 20  1  0
 20 21  2  0
 20 22  1  0
 22 23  1  0
 23 24  1  0
 23 25  2  0
 19 26  1  0
 26 27  1  0
 13  4  1  0
 25 15  1  0
 12  7  1  0
 22 17  2  0
M  END
>  <AAScore>  (1) 
223.6488102079263

>  <RootName>  (1) 
./4ZLY/04_DeltaGEst/trajectory_01/rank_01/lead_0319

$$$$
