confid_3
     RDKit          3D

 28 31  0  0  0  0  0  0  0  0999 V2000
   25.3300   26.2600   34.7600 N   0  0  0  0  0  0  0  0  0  0  0  0
   26.1200   25.9200   33.6900 C   0  0  0  0  0  0  0  0  0  0  0  0
   25.6300   25.1100   32.9400 O   0  0  0  0  0  0  0  0  0  0  0  0
   27.5200   26.3800   33.4600 C   0  0  0  0  0  0  0  0  0  0  0  0
   28.1600   26.6300   34.6100 N   0  0  0  0  0  0  0  0  0  0  0  0
   29.4800   26.8500   34.5700 N   0  0  0  0  0  0  0  0  0  0  0  0
   30.1900   26.7800   33.4400 C   0  0  0  0  0  0  0  0  0  0  0  0
   31.5600   27.0500   33.5000 C   0  0  0  0  0  0  0  0  0  0  0  0
   32.2700   27.2400   32.3100 C   0  0  0  0  0  0  0  0  0  0  0  0
   31.6100   27.2500   31.0800 C   0  0  0  0  0  0  0  0  0  0  0  0
   30.2700   26.8700   31.0600 C   0  0  0  0  0  0  0  0  0  0  0  0
   29.5100   26.6900   32.2300 C   0  0  0  0  0  0  0  0  0  0  0  0
   28.1400   26.4100   32.2000 C   0  0  0  0  0  0  0  0  0  0  0  0
   27.4300   26.1300   31.0500 N   0  0  0  0  0  0  0  0  0  0  0  0
   26.3755   27.0708   30.6217 C   0  0  0  0  0  0  0  0  0  0  0  0
   26.5017   27.5116   29.1473 C   0  0  0  0  0  0  0  0  0  0  0  0
   27.6824   26.9061   28.4844 N   0  0  0  0  0  0  0  0  0  0  0  0
   27.4865   25.5187   27.9506 C   0  0  1  0  0  0  0  0  0  0  0  0
   28.8746   24.9491   27.5103 C   0  0  0  0  0  0  0  0  0  0  0  0
   28.8326   23.5655   27.2849 O   0  0  0  0  0  0  0  0  0  0  0  0
   26.8917   24.6244   29.0899 C   0  0  0  0  0  0  0  0  0  0  0  0
   27.5966   24.7912   30.4493 C   0  0  0  0  0  0  0  0  0  0  0  0
   26.5234   25.4620   26.7434 C   0  0  0  0  0  0  0  0  0  0  0  0
   26.1326   24.2431   26.1442 C   0  0  0  0  0  0  0  0  0  0  0  0
   25.2739   24.3810   25.0656 C   0  0  0  0  0  0  0  0  0  0  0  0
   24.9762   26.0123   24.8423 S   0  0  0  0  0  0  0  0  0  0  0  0
   25.9335   26.5624   26.1061 C   0  0  0  0  0  0  0  0  0  0  0  0
   28.4738   27.8343   27.6426 C   0  0  0  0  0  0  0  0  0  0  0  0
  1  2  1  0
  2  3  2  0
  2  4  1  0
  4  5  2  0
  5  6  1  0
  6  7  2  0
  7  8  1  0
  8  9  2  0
  9 10  1  0
 10 11  2  0
 11 12  1  0
 12 13  2  0
 13 14  1  0
 14 15  1  0
 15 16  1  0
 16 17  1  0
 17 18  1  0
 18 19  1  6
 19 20  1  0
 18 21  1  0
 21 22  1  0
 18 23  1  0
 23 24  1  0
 24 25  2  0
 25 26  1  0
 26 27  1  0
 17 28  1  0
 13  4  1  0
 22 14  1  0
 27 23  2  0
 12  7  1  0
M  END
>  <AAScore>  (1) 
1004.5647243344304

>  <RootName>  (1) 
./4ZLY/04_DeltaGEst/trajectory_03/rank_01/lead_0041

$$$$
