confid_19
     RDKit          3D

 26 29  0  0  0  0  0  0  0  0999 V2000
   24.4800   26.1000   36.1300 N   0  0  0  0  0  0  0  0  0  0  0  0
   25.2500   26.2500   34.9900 C   0  0  0  0  0  0  0  0  0  0  0  0
   24.7400   25.7600   33.9900 O   0  0  0  0  0  0  0  0  0  0  0  0
   26.5900   26.8900   34.9600 C   0  0  0  0  0  0  0  0  0  0  0  0
   27.0600   27.2400   36.1600 N   0  0  0  0  0  0  0  0  0  0  0  0
   28.3000   27.7100   36.2400 N   0  0  0  0  0  0  0  0  0  0  0  0
   29.0500   27.9600   35.1500 C   0  0  0  0  0  0  0  0  0  0  0  0
   30.3400   28.4900   35.2600 C   0  0  0  0  0  0  0  0  0  0  0  0
   31.1100   28.8200   34.1400 C   0  0  0  0  0  0  0  0  0  0  0  0
   30.5200   28.6700   32.8800 C   0  0  0  0  0  0  0  0  0  0  0  0
   29.2900   28.0200   32.7700 C   0  0  0  0  0  0  0  0  0  0  0  0
   28.5200   27.7100   33.8900 C   0  0  0  0  0  0  0  0  0  0  0  0
   27.2700   27.0800   33.7600 C   0  0  0  0  0  0  0  0  0  0  0  0
   26.7500   26.8800   32.4900 N   0  0  0  0  0  0  0  0  0  0  0  0
   23.0432   26.0719   36.1563 C   0  0  0  0  0  0  0  0  0  0  0  0
   22.2029   26.5682   35.1187 C   0  0  0  0  0  0  0  0  0  0  0  0
   20.8954   26.4182   35.5242 C   0  0  0  0  0  0  0  0  0  0  0  0
   19.4172   26.5558   35.3454 C   0  0  1  0  0  0  0  0  0  0  0  0
   18.8607   25.6923   34.2008 C   0  0  0  0  0  0  0  0  0  0  0  0
   19.1290   26.4622   32.6107 S   0  0  0  0  0  6  0  0  0  0  0  0
   18.3038   25.5085   31.3567 C   0  0  0  0  0  0  0  0  0  0  0  0
   20.5987   26.5119   32.3027 O   0  0  0  0  0  0  0  0  0  0  0  0
   18.5717   27.8580   32.6169 O   0  0  0  0  0  0  0  0  0  0  0  0
   19.2347   25.9677   36.6680 C   0  0  0  0  0  0  0  0  0  0  0  0
   20.7161   25.8622   36.7941 C   0  0  0  0  0  0  0  0  0  0  0  0
   22.1561   25.4962   37.5403 S   0  0  0  0  0  0  0  0  0  0  0  0
  1  2  1  0
  2  3  2  0
  2  4  1  0
  4  5  2  0
  5  6  1  0
  6  7  2  0
  7  8  1  0
  8  9  2  0
  9 10  1  0
 10 11  2  0
 11 12  1  0
 12 13  2  0
 13 14  1  0
  1 15  1  0
 15 16  2  0
 16 17  1  0
 17 18  1  0
 18 19  1  6
 19 20  1  0
 20 21  1  0
 20 22  2  0
 20 23  2  0
 18 24  1  0
 24 25  1  0
 25 26  1  0
 13  4  1  0
 26 15  1  0
 12  7  1  0
 25 17  2  0
M  END
>  <AAScore>  (1) 
1588.4050953255266

>  <RootName>  (1) 
./4ZLY/04_DeltaGEst/trajectory_00/rank_00/lead_0128

$$$$
