confid_8
     RDKit          3D

 27 30  0  0  0  0  0  0  0  0999 V2000
   24.2000   26.2400   35.6900 N   0  0  0  0  0  0  0  0  0  0  0  0
   24.8500   26.2800   34.4800 C   0  0  0  0  0  0  0  0  0  0  0  0
   24.3100   25.7400   33.5400 O   0  0  0  0  0  0  0  0  0  0  0  0
   26.1800   26.9700   34.4700 C   0  0  0  0  0  0  0  0  0  0  0  0
   26.6500   27.6000   35.5500 N   0  0  0  0  0  0  0  0  0  0  0  0
   27.7900   28.2700   35.6200 N   0  0  0  0  0  0  0  0  0  0  0  0
   28.5400   28.3000   34.5100 C   0  0  0  0  0  0  0  0  0  0  0  0
   29.7700   28.9400   34.5600 C   0  0  0  0  0  0  0  0  0  0  0  0
   30.7000   28.8900   33.5000 C   0  0  0  0  0  0  0  0  0  0  0  0
   30.3700   28.1400   32.3700 C   0  0  0  0  0  0  0  0  0  0  0  0
   29.1200   27.5200   32.2800 C   0  0  0  0  0  0  0  0  0  0  0  0
   28.2100   27.6100   33.3300 C   0  0  0  0  0  0  0  0  0  0  0  0
   26.9700   26.9700   33.3100 C   0  0  0  0  0  0  0  0  0  0  0  0
   26.5300   26.2400   32.2200 N   0  0  0  0  0  0  0  0  0  0  0  0
   30.1472   29.6507   35.7477 N   0  0  0  0  0  0  0  0  0  0  0  0
   29.8165   31.0826   35.8410 C   0  0  0  0  0  0  0  0  0  0  0  0
   30.6297   31.7934   36.9289 C   0  0  0  0  0  0  0  0  0  0  0  0
   30.6153   30.9999   38.1975 C   0  0  0  0  0  0  0  0  0  0  0  0
   30.5565   31.6303   39.4017 N   0  0  0  0  0  0  0  0  0  0  0  0
   30.5891   30.9414   40.5774 C   0  0  0  0  0  0  0  0  0  0  0  0
   30.7032   29.5484   40.5608 C   0  0  0  0  0  0  0  0  0  0  0  0
   30.7821   28.8794   39.3378 C   0  0  0  0  0  0  0  0  0  0  0  0
   30.7287   29.6046   38.1404 C   0  0  0  0  0  0  0  0  0  0  0  0
   30.8584   28.9173   36.8078 C   0  0  0  0  0  0  0  0  0  0  0  0
   30.5224   31.6095   41.8054 O   0  0  0  0  0  0  0  0  0  0  0  0
   30.3547   33.0209   41.9274 C   0  0  0  0  0  0  0  0  0  0  0  0
   28.9063   33.4153   41.6632 C   0  0  0  0  0  0  0  0  0  0  0  0
  1  2  1  0
  2  3  2  0
  2  4  1  0
  4  5  2  0
  5  6  1  0
  6  7  2  0
  7  8  1  0
  8  9  2  0
  9 10  1  0
 10 11  2  0
 11 12  1  0
 12 13  2  0
 13 14  1  0
  8 15  1  0
 15 16  1  0
 16 17  1  0
 17 18  1  0
 18 19  2  0
 19 20  1  0
 20 21  2  0
 21 22  1  0
 22 23  2  0
 23 24  1  0
 20 25  1  0
 25 26  1  0
 26 27  1  0
 13  4  1  0
 24 15  1  0
 12  7  1  0
 23 18  1  0
M  END
>  <AAScore>  (1) 
-8.515790734488426

>  <RootName>  (1) 
./4ZLY/04_DeltaGEst/trajectory_04/rank_01/lead_0063

$$$$
