confid_1
     RDKit          3D

 27 30  0  0  0  0  0  0  0  0999 V2000
   24.5500   26.3900   36.2500 N   0  0  0  0  0  0  0  0  0  0  0  0
   25.6000   26.1300   35.4000 C   0  0  0  0  0  0  0  0  0  0  0  0
   25.4300   25.4300   34.4200 O   0  0  0  0  0  0  0  0  0  0  0  0
   26.9800   26.6300   35.7100 C   0  0  0  0  0  0  0  0  0  0  0  0
   27.3200   26.8200   36.9800 N   0  0  0  0  0  0  0  0  0  0  0  0
   28.4700   27.4000   37.3100 N   0  0  0  0  0  0  0  0  0  0  0  0
   29.4000   27.6300   36.3700 C   0  0  0  0  0  0  0  0  0  0  0  0
   30.6600   28.0500   36.8000 C   0  0  0  0  0  0  0  0  0  0  0  0
   31.5700   28.3600   35.7800 C   0  0  0  0  0  0  0  0  0  0  0  0
   31.3700   28.1000   34.4300 C   0  0  0  0  0  0  0  0  0  0  0  0
   30.1200   27.5900   34.0500 C   0  0  0  0  0  0  0  0  0  0  0  0
   29.1500   27.3400   35.0300 C   0  0  0  0  0  0  0  0  0  0  0  0
   27.8800   26.8900   34.6600 C   0  0  0  0  0  0  0  0  0  0  0  0
   27.4800   26.6100   33.3700 N   0  0  0  0  0  0  0  0  0  0  0  0
   23.2305   25.8163   36.1396 C   0  0  0  0  0  0  0  0  0  0  0  0
   22.9708   24.8405   35.2256 N   0  0  0  0  0  0  0  0  0  0  0  0
   21.7466   24.2665   35.1025 C   0  0  0  0  0  0  0  0  0  0  0  0
   20.6892   24.6786   35.9219 C   0  0  0  0  0  0  0  0  0  0  0  0
   19.3457   24.0015   35.8290 C   0  0  0  0  0  0  0  0  0  0  0  0
   18.2592   24.9247   36.1816 N   0  0  0  0  0  0  0  0  0  0  0  0
   16.9282   24.7488   35.5962 C   0  0  0  0  0  0  0  0  0  0  0  0
   18.4676   25.9254   37.1954 C   0  0  0  0  0  0  0  0  0  0  0  0
   17.5095   26.6467   37.5859 O   0  0  0  0  0  0  0  0  0  0  0  0
   19.8184   26.0950   37.8265 C   0  0  0  0  0  0  0  0  0  0  0  0
   20.9195   25.6819   36.8816 C   0  0  0  0  0  0  0  0  0  0  0  0
   22.2024   26.2434   36.9972 C   0  0  0  0  0  0  0  0  0  0  0  0
   22.4489   27.1927   37.9371 F   0  0  0  0  0  0  0  0  0  0  0  0
  1  2  1  0
  2  3  2  0
  2  4  1  0
  4  5  2  0
  5  6  1  0
  6  7  2  0
  7  8  1  0
  8  9  2  0
  9 10  1  0
 10 11  2  0
 11 12  1  0
 12 13  2  0
 13 14  1  0
  1 15  1  0
 15 16  2  0
 16 17  1  0
 17 18  2  0
 18 19  1  0
 19 20  1  0
 20 21  1  0
 20 22  1  0
 22 23  2  0
 22 24  1  0
 24 25  1  0
 25 26  2  0
 26 27  1  0
 13  4  1  0
 26 15  1  0
 12  7  1  0
 25 18  1  0
M  END
>  <AAScore>  (1) 
3574.788665871309

>  <RootName>  (1) 
./4ZLY/04_DeltaGEst/trajectory_01/rank_00/lead_0254

$$$$
