confid_18
     RDKit          3D

 30 34  0  0  0  0  0  0  0  0999 V2000
   24.2000   26.2400   35.6900 N   0  0  0  0  0  0  0  0  0  0  0  0
   24.8500   26.2800   34.4800 C   0  0  0  0  0  0  0  0  0  0  0  0
   24.3100   25.7400   33.5400 O   0  0  0  0  0  0  0  0  0  0  0  0
   26.1800   26.9700   34.4700 C   0  0  0  0  0  0  0  0  0  0  0  0
   26.6500   27.6000   35.5500 N   0  0  0  0  0  0  0  0  0  0  0  0
   27.7900   28.2700   35.6200 N   0  0  0  0  0  0  0  0  0  0  0  0
   28.5400   28.3000   34.5100 C   0  0  0  0  0  0  0  0  0  0  0  0
   29.7700   28.9400   34.5600 C   0  0  0  0  0  0  0  0  0  0  0  0
   30.7000   28.8900   33.5000 C   0  0  0  0  0  0  0  0  0  0  0  0
   30.3700   28.1400   32.3700 C   0  0  0  0  0  0  0  0  0  0  0  0
   29.1200   27.5200   32.2800 C   0  0  0  0  0  0  0  0  0  0  0  0
   28.2100   27.6100   33.3300 C   0  0  0  0  0  0  0  0  0  0  0  0
   26.9700   26.9700   33.3100 C   0  0  0  0  0  0  0  0  0  0  0  0
   26.5300   26.2400   32.2200 N   0  0  0  0  0  0  0  0  0  0  0  0
   22.7787   26.0126   35.8600 C   0  0  0  0  0  0  0  0  0  0  0  0
   21.9487   25.8988   34.6833 N   0  0  0  0  0  0  0  0  0  0  0  0
   20.6965   25.6241   34.4172 C   0  0  0  0  0  0  0  0  0  0  0  0
   20.2188   26.0432   33.0531 C   0  0  0  0  0  0  0  0  0  0  0  0
   19.2326   27.2111   33.2197 C   0  0  0  0  0  0  0  0  0  0  0  0
   18.1352   26.8582   34.1500 N   0  0  0  0  0  0  0  0  0  0  0  0
   17.1850   27.9791   34.2532 C   0  0  0  0  0  0  0  0  0  0  0  0
   18.6542   26.5044   35.4949 C   0  0  0  0  0  0  0  0  0  0  0  0
   19.5860   25.2663   35.4138 C   0  0  1  0  0  0  0  0  0  0  0  0
   18.7743   24.0597   34.8630 C   0  0  0  0  0  0  0  0  0  0  0  0
   20.0550   24.8315   36.8184 C   0  0  0  0  0  0  0  0  0  0  0  0
   20.9180   25.8208   37.5044 C   0  0  0  0  0  0  0  0  0  0  0  0
   20.7859   26.1112   38.7563 N   0  0  0  0  0  0  0  0  0  0  0  0
   22.0367   26.6841   39.1449 C   0  0  0  0  0  0  0  0  0  0  0  0
   22.9307   26.6840   38.2081 N   0  0  0  0  0  0  0  0  0  0  0  0
   22.2530   26.1375   37.0837 C   0  0  0  0  0  0  0  0  0  0  0  0
  1  2  1  0
  2  3  2  0
  2  4  1  0
  4  5  2  0
  5  6  1  0
  6  7  2  0
  7  8  1  0
  8  9  2  0
  9 10  1  0
 10 11  2  0
 11 12  1  0
 12 13  2  0
 13 14  1  0
  1 15  1  0
 15 16  1  0
 16 17  2  0
 17 18  1  0
 18 19  1  0
 19 20  1  0
 20 21  1  0
 20 22  1  0
 22 23  1  0
 23 24  1  6
 23 25  1  0
 25 26  1  0
 26 27  2  0
 27 28  1  0
 28 29  2  0
 29 30  1  0
 13  4  1  0
 30 15  2  0
 12  7  1  0
 23 17  1  0
 30 26  1  0
M  END
>  <AAScore>  (1) 
2473.9244565165877

>  <RootName>  (1) 
./4ZLY/04_DeltaGEst/trajectory_04/rank_00/lead_0484

$$$$
