confid_13
     RDKit          3D

 28 31  0  0  0  0  0  0  0  0999 V2000
   24.6900   26.1200   35.5300 N   0  0  0  0  0  0  0  0  0  0  0  0
   25.6600   25.6700   34.6600 C   0  0  0  0  0  0  0  0  0  0  0  0
   25.2400   25.0100   33.7200 O   0  0  0  0  0  0  0  0  0  0  0  0
   27.0300   26.2200   34.8800 C   0  0  0  0  0  0  0  0  0  0  0  0
   27.3500   26.7300   36.0700 N   0  0  0  0  0  0  0  0  0  0  0  0
   28.5700   27.1800   36.3300 N   0  0  0  0  0  0  0  0  0  0  0  0
   29.5300   27.1100   35.3900 C   0  0  0  0  0  0  0  0  0  0  0  0
   30.8300   27.5700   35.6500 C   0  0  0  0  0  0  0  0  0  0  0  0
   31.8500   27.5400   34.6900 C   0  0  0  0  0  0  0  0  0  0  0  0
   31.5100   27.1200   33.4000 C   0  0  0  0  0  0  0  0  0  0  0  0
   30.2200   26.6300   33.1100 C   0  0  0  0  0  0  0  0  0  0  0  0
   29.2400   26.6600   34.1000 C   0  0  0  0  0  0  0  0  0  0  0  0
   27.9300   26.2600   33.8100 C   0  0  0  0  0  0  0  0  0  0  0  0
   27.5200   25.7100   32.6100 N   0  0  0  0  0  0  0  0  0  0  0  0
   31.1471   28.0599   36.9657 N   0  0  0  0  0  0  0  0  0  0  0  0
   31.1851   27.1381   38.0987 C   0  0  0  0  0  0  0  0  0  0  0  0
   30.4510   27.7668   39.2756 C   0  0  0  0  0  0  0  0  0  0  0  0
   30.9299   29.1752   39.5471 C   0  0  0  0  0  0  0  0  0  0  0  0
   30.7323   29.7393   40.8222 C   0  0  0  0  0  0  0  0  0  0  0  0
   30.1236   28.9989   41.8399 O   0  0  0  0  0  0  0  0  0  0  0  0
   28.7130   29.0024   42.0184 C   0  0  0  0  0  0  0  0  0  0  0  0
   31.1679   31.0488   41.0728 C   0  0  0  0  0  0  0  0  0  0  0  0
   31.7274   31.7750   40.0722 N   0  0  0  0  0  0  0  0  0  0  0  0
   31.9095   31.2819   38.8193 C   0  0  0  0  0  0  0  0  0  0  0  0
   32.5385   32.1744   37.7886 C   0  0  0  0  0  0  0  0  0  0  0  0
   31.5027   29.9620   38.5170 C   0  0  0  0  0  0  0  0  0  0  0  0
   31.7307   29.3947   37.1267 C   0  0  0  0  0  0  0  0  0  0  0  0
   30.9865   31.6822   42.4184 C   0  0  0  0  0  0  0  0  0  0  0  0
  1  2  1  0
  2  3  2  0
  2  4  1  0
  4  5  2  0
  5  6  1  0
  6  7  2  0
  7  8  1  0
  8  9  2  0
  9 10  1  0
 10 11  2  0
 11 12  1  0
 12 13  2  0
 13 14  1  0
  8 15  1  0
 15 16  1  0
 16 17  1  0
 17 18  1  0
 18 19  2  0
 19 20  1  0
 20 21  1  0
 19 22  1  0
 22 23  2  0
 23 24  1  0
 24 25  1  0
 24 26  2  0
 26 27  1  0
 22 28  1  0
 13  4  1  0
 27 15  1  0
 12  7  1  0
 26 18  1  0
M  END
>  <AAScore>  (1) 
-7.019926831439866

>  <RootName>  (1) 
./4ZLY/04_DeltaGEst/trajectory_02/rank_01/lead_0276

$$$$
