confid_6
     RDKit          3D

 27 30  0  0  0  0  0  0  0  0999 V2000
   24.6900   26.1200   35.5300 N   0  0  0  0  0  0  0  0  0  0  0  0
   25.6600   25.6700   34.6600 C   0  0  0  0  0  0  0  0  0  0  0  0
   25.2400   25.0100   33.7200 O   0  0  0  0  0  0  0  0  0  0  0  0
   27.0300   26.2200   34.8800 C   0  0  0  0  0  0  0  0  0  0  0  0
   27.3500   26.7300   36.0700 N   0  0  0  0  0  0  0  0  0  0  0  0
   28.5700   27.1800   36.3300 N   0  0  0  0  0  0  0  0  0  0  0  0
   29.5300   27.1100   35.3900 C   0  0  0  0  0  0  0  0  0  0  0  0
   30.8300   27.5700   35.6500 C   0  0  0  0  0  0  0  0  0  0  0  0
   31.8500   27.5400   34.6900 C   0  0  0  0  0  0  0  0  0  0  0  0
   31.5100   27.1200   33.4000 C   0  0  0  0  0  0  0  0  0  0  0  0
   30.2200   26.6300   33.1100 C   0  0  0  0  0  0  0  0  0  0  0  0
   29.2400   26.6600   34.1000 C   0  0  0  0  0  0  0  0  0  0  0  0
   27.9300   26.2600   33.8100 C   0  0  0  0  0  0  0  0  0  0  0  0
   27.5200   25.7100   32.6100 N   0  0  0  0  0  0  0  0  0  0  0  0
   23.3195   26.3702   35.1713 C   0  0  0  0  0  0  0  0  0  0  0  0
   22.4106   26.6332   36.1468 N   0  0  0  0  0  0  0  0  0  0  0  0
   21.1140   26.9017   35.8475 C   0  0  0  0  0  0  0  0  0  0  0  0
   20.6911   26.9281   34.5137 C   0  0  0  0  0  0  0  0  0  0  0  0
   19.2391   27.1665   34.1787 C   0  0  1  0  0  0  0  0  0  0  0  0
   18.7758   28.2663   34.8830 F   0  0  0  0  0  0  0  0  0  0  0  0
   19.0330   27.4087   32.6663 C   0  0  1  0  0  0  0  0  0  0  0  0
   19.8230   26.4686   31.8311 N   0  0  0  0  0  0  0  0  0  0  0  0
   19.4539   25.0477   31.9975 C   0  0  0  0  0  0  0  0  0  0  0  0
   21.2693   26.6725   32.0564 C   0  0  0  0  0  0  0  0  0  0  0  0
   21.6380   26.6328   33.5174 C   0  0  0  0  0  0  0  0  0  0  0  0
   22.9269   26.3830   33.8683 N   0  0  0  0  0  0  0  0  0  0  0  0
   17.5445   27.3987   32.2885 C   0  0  0  0  0  0  0  0  0  0  0  0
  1  2  1  0
  2  3  2  0
  2  4  1  0
  4  5  2  0
  5  6  1  0
  6  7  2  0
  7  8  1  0
  8  9  2  0
  9 10  1  0
 10 11  2  0
 11 12  1  0
 12 13  2  0
 13 14  1  0
  1 15  1  0
 15 16  2  0
 16 17  1  0
 17 18  2  0
 18 19  1  0
 19 20  1  1
 19 21  1  0
 21 22  1  0
 22 23  1  0
 22 24  1  0
 24 25  1  0
 25 26  2  0
 21 27  1  1
 13  4  1  0
 26 15  1  0
 12  7  1  0
 25 18  1  0
M  END
>  <AAScore>  (1) 
219.9956992908364

>  <RootName>  (1) 
./4ZLY/04_DeltaGEst/trajectory_02/rank_00/lead_0064

$$$$
