confid_9
     RDKit          3D

 27 31  0  0  0  0  0  0  0  0999 V2000
   24.4800   26.1000   36.1300 N   0  0  0  0  0  0  0  0  0  0  0  0
   25.2500   26.2500   34.9900 C   0  0  0  0  0  0  0  0  0  0  0  0
   24.7400   25.7600   33.9900 O   0  0  0  0  0  0  0  0  0  0  0  0
   26.5900   26.8900   34.9600 C   0  0  0  0  0  0  0  0  0  0  0  0
   27.0600   27.2400   36.1600 N   0  0  0  0  0  0  0  0  0  0  0  0
   28.3000   27.7100   36.2400 N   0  0  0  0  0  0  0  0  0  0  0  0
   29.0500   27.9600   35.1500 C   0  0  0  0  0  0  0  0  0  0  0  0
   30.3400   28.4900   35.2600 C   0  0  0  0  0  0  0  0  0  0  0  0
   31.1100   28.8200   34.1400 C   0  0  0  0  0  0  0  0  0  0  0  0
   30.5200   28.6700   32.8800 C   0  0  0  0  0  0  0  0  0  0  0  0
   29.2900   28.0200   32.7700 C   0  0  0  0  0  0  0  0  0  0  0  0
   28.5200   27.7100   33.8900 C   0  0  0  0  0  0  0  0  0  0  0  0
   27.2700   27.0800   33.7600 C   0  0  0  0  0  0  0  0  0  0  0  0
   26.7500   26.8800   32.4900 N   0  0  0  0  0  0  0  0  0  0  0  0
   23.5794   25.0061   36.3729 C   0  0  0  0  0  0  0  0  0  0  0  0
   22.7805   24.9772   37.3926 N   0  0  0  0  0  0  0  0  0  0  0  0
   22.1443   23.6958   37.3854 C   0  0  0  0  0  0  0  0  0  0  0  0
   22.5620   22.9720   36.3522 C   0  0  0  0  0  0  0  0  0  0  0  0
   22.9674   21.5144   36.3843 C   0  0  2  0  0  0  0  0  0  0  0  0
   23.2461   21.1020   37.6787 F   0  0  0  0  0  0  0  0  0  0  0  0
   24.2519   21.5149   35.5014 C   0  0  2  0  0  0  0  0  0  0  0  0
   25.5455   21.3396   36.1339 C   0  0  0  0  0  0  0  0  0  0  0  0
   26.1645   20.4086   36.7119 O   0  0  0  0  0  0  0  0  0  0  0  0
   25.8225   22.7277   35.7871 N   0  0  0  0  0  0  0  0  0  0  0  0
   24.4566   22.9253   35.3264 C   0  0  0  0  0  0  0  0  0  0  0  0
   23.4927   23.7702   35.6020 C   0  0  0  0  0  0  0  0  0  0  0  0
   24.1105   20.7628   34.1712 C   0  0  0  0  0  0  0  0  0  0  0  0
  1  2  1  0
  2  3  2  0
  2  4  1  0
  4  5  2  0
  5  6  1  0
  6  7  2  0
  7  8  1  0
  8  9  2  0
  9 10  1  0
 10 11  2  0
 11 12  1  0
 12 13  2  0
 13 14  1  0
  1 15  1  0
 15 16  2  0
 16 17  1  0
 17 18  2  0
 18 19  1  0
 19 20  1  1
 19 21  1  0
 21 22  1  0
 22 23  2  0
 22 24  1  0
 24 25  1  0
 25 26  2  0
 21 27  1  6
 13  4  1  0
 26 15  1  0
 12  7  1  0
 26 18  1  0
 25 21  1  0
M  END
>  <AAScore>  (1) 
4667.8180436813

>  <RootName>  (1) 
./4ZLY/04_DeltaGEst/trajectory_00/rank_00/lead_0168

$$$$
