confid_2
     RDKit          3D

 30 33  0  0  0  0  0  0  0  0999 V2000
   25.3300   26.2600   34.7600 N   0  0  0  0  0  0  0  0  0  0  0  0
   26.1200   25.9200   33.6900 C   0  0  0  0  0  0  0  0  0  0  0  0
   25.6300   25.1100   32.9400 O   0  0  0  0  0  0  0  0  0  0  0  0
   27.5200   26.3800   33.4600 C   0  0  0  0  0  0  0  0  0  0  0  0
   28.1600   26.6300   34.6100 N   0  0  0  0  0  0  0  0  0  0  0  0
   29.4800   26.8500   34.5700 N   0  0  0  0  0  0  0  0  0  0  0  0
   30.1900   26.7800   33.4400 C   0  0  0  0  0  0  0  0  0  0  0  0
   31.5600   27.0500   33.5000 C   0  0  0  0  0  0  0  0  0  0  0  0
   32.2700   27.2400   32.3100 C   0  0  0  0  0  0  0  0  0  0  0  0
   31.6100   27.2500   31.0800 C   0  0  0  0  0  0  0  0  0  0  0  0
   30.2700   26.8700   31.0600 C   0  0  0  0  0  0  0  0  0  0  0  0
   29.5100   26.6900   32.2300 C   0  0  0  0  0  0  0  0  0  0  0  0
   28.1400   26.4100   32.2000 C   0  0  0  0  0  0  0  0  0  0  0  0
   27.4300   26.1300   31.0500 N   0  0  0  0  0  0  0  0  0  0  0  0
   26.4361   27.0781   30.5412 C   0  0  0  0  0  0  0  0  0  0  0  0
   26.5342   27.1565   29.0169 C   0  0  0  0  0  0  0  0  0  0  0  0
   26.4439   25.8044   28.4289 N   0  0  0  0  0  0  0  0  0  0  0  0
   26.4292   25.8939   26.9549 C   0  0  0  0  0  0  0  0  0  0  0  0
   25.9435   24.6059   26.3557 C   0  0  0  0  0  0  0  0  0  0  0  0
   26.7403   23.7878   25.6369 N   0  0  0  0  0  0  0  0  0  0  0  0
   25.9493   22.7347   25.3321 C   0  0  0  0  0  0  0  0  0  0  0  0
   24.6927   22.9293   25.8773 C   0  0  0  0  0  0  0  0  0  0  0  0
   24.6961   24.1125   26.5119 N   0  0  0  0  0  0  0  0  0  0  0  0
   23.6005   24.6821   27.2912 C   0  0  0  0  0  0  0  0  0  0  0  0
   26.4012   21.5208   24.5398 C   0  0  0  0  0  0  0  0  0  0  0  0
   25.5080   21.3604   23.2949 C   0  0  0  0  0  0  0  0  0  0  0  0
   27.8669   21.6847   24.0862 C   0  0  0  0  0  0  0  0  0  0  0  0
   26.2891   20.2642   25.4231 C   0  0  0  0  0  0  0  0  0  0  0  0
   27.5780   24.9731   28.8899 C   0  0  0  0  0  0  0  0  0  0  0  0
   27.5423   24.8148   30.4118 C   0  0  0  0  0  0  0  0  0  0  0  0
  1  2  1  0
  2  3  2  0
  2  4  1  0
  4  5  2  0
  5  6  1  0
  6  7  2  0
  7  8  1  0
  8  9  2  0
  9 10  1  0
 10 11  2  0
 11 12  1  0
 12 13  2  0
 13 14  1  0
 14 15  1  0
 15 16  1  0
 16 17  1  0
 17 18  1  0
 18 19  1  0
 19 20  2  0
 20 21  1  0
 21 22  2  0
 22 23  1  0
 23 24  1  0
 21 25  1  0
 25 26  1  0
 25 27  1  0
 25 28  1  0
 17 29  1  0
 29 30  1  0
 13  4  1  0
 30 14  1  0
 12  7  1  0
 23 19  1  0
M  END
>  <AAScore>  (1) 
139.72672919746734

>  <RootName>  (1) 
./4ZLY/04_DeltaGEst/trajectory_03/rank_01/lead_0235

$$$$
