confid_4
     RDKit          3D

 27 30  0  0  0  0  0  0  0  0999 V2000
   24.5500   26.3900   36.2500 N   0  0  0  0  0  0  0  0  0  0  0  0
   25.6000   26.1300   35.4000 C   0  0  0  0  0  0  0  0  0  0  0  0
   25.4300   25.4300   34.4200 O   0  0  0  0  0  0  0  0  0  0  0  0
   26.9800   26.6300   35.7100 C   0  0  0  0  0  0  0  0  0  0  0  0
   27.3200   26.8200   36.9800 N   0  0  0  0  0  0  0  0  0  0  0  0
   28.4700   27.4000   37.3100 N   0  0  0  0  0  0  0  0  0  0  0  0
   29.4000   27.6300   36.3700 C   0  0  0  0  0  0  0  0  0  0  0  0
   30.6600   28.0500   36.8000 C   0  0  0  0  0  0  0  0  0  0  0  0
   31.5700   28.3600   35.7800 C   0  0  0  0  0  0  0  0  0  0  0  0
   31.3700   28.1000   34.4300 C   0  0  0  0  0  0  0  0  0  0  0  0
   30.1200   27.5900   34.0500 C   0  0  0  0  0  0  0  0  0  0  0  0
   29.1500   27.3400   35.0300 C   0  0  0  0  0  0  0  0  0  0  0  0
   27.8800   26.8900   34.6600 C   0  0  0  0  0  0  0  0  0  0  0  0
   27.4800   26.6100   33.3700 N   0  0  0  0  0  0  0  0  0  0  0  0
   23.2568   25.7555   36.1890 C   0  0  0  0  0  0  0  0  0  0  0  0
   23.1637   24.5935   35.5821 N   0  0  0  0  0  0  0  0  0  0  0  0
   22.0581   23.7204   35.2986 C   0  0  0  0  0  0  0  0  0  0  0  0
   20.9302   24.1135   34.6882 C   0  0  0  0  0  0  0  0  0  0  0  0
   20.6080   25.5579   34.5326 C   0  0  0  0  0  0  0  0  0  0  0  0
   19.9172   25.8812   35.7720 N   0  0  0  0  0  0  0  0  0  0  0  0
   18.5586   25.3116   35.8497 C   0  0  0  0  0  0  0  0  0  0  0  0
   18.5971   23.7621   35.7144 C   0  0  0  0  0  0  0  0  0  0  0  0
   19.7334   23.2658   34.8372 C   0  0  0  0  0  0  0  0  0  0  0  0
   19.7088   22.0994   34.3561 O   0  0  0  0  0  0  0  0  0  0  0  0
   20.7395   25.9263   36.9591 C   0  0  0  0  0  0  0  0  0  0  0  0
   20.2787   25.5220   38.0628 O   0  0  0  0  0  0  0  0  0  0  0  0
   22.1334   26.4981   36.9197 C   0  0  0  0  0  0  0  0  0  0  0  0
  1  2  1  0
  2  3  2  0
  2  4  1  0
  4  5  2  0
  5  6  1  0
  6  7  2  0
  7  8  1  0
  8  9  2  0
  9 10  1  0
 10 11  2  0
 11 12  1  0
 12 13  2  0
 13 14  1  0
  1 15  1  0
 15 16  2  0
 16 17  1  0
 17 18  2  0
 18 19  1  0
 19 20  1  0
 20 21  1  0
 21 22  1  0
 22 23  1  0
 23 24  2  0
 20 25  1  0
 25 26  2  0
 25 27  1  0
 13  4  1  0
 27 15  1  0
 12  7  1  0
 23 18  1  0
M  END
>  <AAScore>  (1) 
4765.109769785879

>  <RootName>  (1) 
./4ZLY/04_DeltaGEst/trajectory_01/rank_00/lead_0297

$$$$
