confid_12
     RDKit          3D

 28 31  0  0  0  0  0  0  0  0999 V2000
   24.5500   26.3900   36.2500 N   0  0  0  0  0  0  0  0  0  0  0  0
   25.6000   26.1300   35.4000 C   0  0  0  0  0  0  0  0  0  0  0  0
   25.4300   25.4300   34.4200 O   0  0  0  0  0  0  0  0  0  0  0  0
   26.9800   26.6300   35.7100 C   0  0  0  0  0  0  0  0  0  0  0  0
   27.3200   26.8200   36.9800 N   0  0  0  0  0  0  0  0  0  0  0  0
   28.4700   27.4000   37.3100 N   0  0  0  0  0  0  0  0  0  0  0  0
   29.4000   27.6300   36.3700 C   0  0  0  0  0  0  0  0  0  0  0  0
   30.6600   28.0500   36.8000 C   0  0  0  0  0  0  0  0  0  0  0  0
   31.5700   28.3600   35.7800 C   0  0  0  0  0  0  0  0  0  0  0  0
   31.3700   28.1000   34.4300 C   0  0  0  0  0  0  0  0  0  0  0  0
   30.1200   27.5900   34.0500 C   0  0  0  0  0  0  0  0  0  0  0  0
   29.1500   27.3400   35.0300 C   0  0  0  0  0  0  0  0  0  0  0  0
   27.8800   26.8900   34.6600 C   0  0  0  0  0  0  0  0  0  0  0  0
   27.4800   26.6100   33.3700 N   0  0  0  0  0  0  0  0  0  0  0  0
   23.3978   25.5341   36.4235 C   0  0  0  0  0  0  0  0  0  0  0  0
   22.2634   26.0420   36.7976 N   0  0  0  0  0  0  0  0  0  0  0  0
   21.6117   27.1550   36.1595 C   0  0  0  0  0  0  0  0  0  0  0  0
   21.2476   27.0263   34.8661 C   0  0  0  0  0  0  0  0  0  0  0  0
   22.0420   26.1455   33.9534 C   0  0  0  0  0  0  0  0  0  0  0  0
   21.5642   24.7874   34.2049 N   0  0  0  0  0  0  0  0  0  0  0  0
   20.1054   24.5570   34.0887 C   0  0  0  0  0  0  0  0  0  0  0  0
   19.3049   25.8678   33.8007 C   0  0  0  0  0  0  0  0  0  0  0  0
   19.8405   27.0215   34.5559 N   0  0  0  0  0  0  0  0  0  0  0  0
   18.9974   28.1857   34.8289 C   0  0  0  0  0  0  0  0  0  0  0  0
   22.3775   23.8102   34.9054 C   0  0  0  0  0  0  0  0  0  0  0  0
   22.1750   22.5847   34.6895 O   0  0  0  0  0  0  0  0  0  0  0  0
   23.3867   24.2000   35.8805 N   0  0  0  0  0  0  0  0  0  0  0  0
   24.3442   23.2110   36.3773 C   0  0  0  0  0  0  0  0  0  0  0  0
  1  2  1  0
  2  3  2  0
  2  4  1  0
  4  5  2  0
  5  6  1  0
  6  7  2  0
  7  8  1  0
  8  9  2  0
  9 10  1  0
 10 11  2  0
 11 12  1  0
 12 13  2  0
 13 14  1  0
  1 15  1  0
 15 16  2  0
 16 17  1  0
 17 18  2  0
 18 19  1  0
 19 20  1  0
 20 21  1  0
 21 22  1  0
 22 23  1  0
 23 24  1  0
 20 25  1  0
 25 26  2  0
 25 27  1  0
 27 28  1  0
 13  4  1  0
 27 15  1  0
 12  7  1  0
 23 18  1  0
M  END
>  <AAScore>  (1) 
1441.5571697849616

>  <RootName>  (1) 
./4ZLY/04_DeltaGEst/trajectory_01/rank_00/lead_0222

$$$$
