confid_1
     RDKit          3D

 28 31  0  0  0  0  0  0  0  0999 V2000
   25.3300   26.2600   34.7600 N   0  0  0  0  0  0  0  0  0  0  0  0
   26.1200   25.9200   33.6900 C   0  0  0  0  0  0  0  0  0  0  0  0
   25.6300   25.1100   32.9400 O   0  0  0  0  0  0  0  0  0  0  0  0
   27.5200   26.3800   33.4600 C   0  0  0  0  0  0  0  0  0  0  0  0
   28.1600   26.6300   34.6100 N   0  0  0  0  0  0  0  0  0  0  0  0
   29.4800   26.8500   34.5700 N   0  0  0  0  0  0  0  0  0  0  0  0
   30.1900   26.7800   33.4400 C   0  0  0  0  0  0  0  0  0  0  0  0
   31.5600   27.0500   33.5000 C   0  0  0  0  0  0  0  0  0  0  0  0
   32.2700   27.2400   32.3100 C   0  0  0  0  0  0  0  0  0  0  0  0
   31.6100   27.2500   31.0800 C   0  0  0  0  0  0  0  0  0  0  0  0
   30.2700   26.8700   31.0600 C   0  0  0  0  0  0  0  0  0  0  0  0
   29.5100   26.6900   32.2300 C   0  0  0  0  0  0  0  0  0  0  0  0
   28.1400   26.4100   32.2000 C   0  0  0  0  0  0  0  0  0  0  0  0
   27.4300   26.1300   31.0500 N   0  0  0  0  0  0  0  0  0  0  0  0
   24.1799   25.5097   35.2070 C   0  0  0  0  0  0  0  0  0  0  0  0
   24.1551   24.1592   35.0047 N   0  0  0  0  0  0  0  0  0  0  0  0
   23.1094   23.4136   35.4231 C   0  0  0  0  0  0  0  0  0  0  0  0
   22.9451   21.9368   35.2305 C   0  0  0  0  0  0  0  0  0  0  0  0
   21.6365   21.6764   35.8309 N   0  0  0  0  0  0  0  0  0  0  0  0
   20.9725   20.3801   35.8843 C   0  0  0  0  0  0  0  0  0  0  0  0
   21.1047   22.9001   36.3278 C   0  0  0  0  0  0  0  0  0  0  0  0
   19.9713   23.0053   36.8673 O   0  0  0  0  0  0  0  0  0  0  0  0
   22.0438   23.9793   36.0773 C   0  0  0  0  0  0  0  0  0  0  0  0
   22.0045   25.3530   36.3564 C   0  0  0  0  0  0  0  0  0  0  0  0
   23.0880   26.1522   35.8748 C   0  0  0  0  0  0  0  0  0  0  0  0
   23.0841   27.6605   36.0493 C   0  0  0  0  0  0  0  0  0  0  0  0
   23.7315   28.0677   37.3723 C   0  0  0  0  0  0  0  0  0  0  0  0
   20.8098   25.9374   37.0721 C   0  0  0  0  0  0  0  0  0  0  0  0
  1  2  1  0
  2  3  2  0
  2  4  1  0
  4  5  2  0
  5  6  1  0
  6  7  2  0
  7  8  1  0
  8  9  2  0
  9 10  1  0
 10 11  2  0
 11 12  1  0
 12 13  2  0
 13 14  1  0
  1 15  1  0
 15 16  2  0
 16 17  1  0
 17 18  1  0
 18 19  1  0
 19 20  1  0
 19 21  1  0
 21 22  2  0
 21 23  1  0
 23 24  1  0
 24 25  2  0
 25 26  1  0
 26 27  1  0
 24 28  1  0
 13  4  1  0
 25 15  1  0
 12  7  1  0
 23 17  2  0
M  END
>  <AAScore>  (1) 
8797.994236177283

>  <RootName>  (1) 
./4ZLY/04_DeltaGEst/trajectory_03/rank_00/lead_0436

$$$$
