confid_1
     RDKit          3D

 31 34  0  0  0  0  0  0  0  0999 V2000
   24.5500   26.3900   36.2500 N   0  0  0  0  0  0  0  0  0  0  0  0
   25.6000   26.1300   35.4000 C   0  0  0  0  0  0  0  0  0  0  0  0
   25.4300   25.4300   34.4200 O   0  0  0  0  0  0  0  0  0  0  0  0
   26.9800   26.6300   35.7100 C   0  0  0  0  0  0  0  0  0  0  0  0
   27.3200   26.8200   36.9800 N   0  0  0  0  0  0  0  0  0  0  0  0
   28.4700   27.4000   37.3100 N   0  0  0  0  0  0  0  0  0  0  0  0
   29.4000   27.6300   36.3700 C   0  0  0  0  0  0  0  0  0  0  0  0
   30.6600   28.0500   36.8000 C   0  0  0  0  0  0  0  0  0  0  0  0
   31.5700   28.3600   35.7800 C   0  0  0  0  0  0  0  0  0  0  0  0
   31.3700   28.1000   34.4300 C   0  0  0  0  0  0  0  0  0  0  0  0
   30.1200   27.5900   34.0500 C   0  0  0  0  0  0  0  0  0  0  0  0
   29.1500   27.3400   35.0300 C   0  0  0  0  0  0  0  0  0  0  0  0
   27.8800   26.8900   34.6600 C   0  0  0  0  0  0  0  0  0  0  0  0
   27.4800   26.6100   33.3700 N   0  0  0  0  0  0  0  0  0  0  0  0
   23.2469   25.7151   36.1413 C   0  0  0  0  0  0  0  0  0  0  0  0
   23.3495   24.2862   36.7099 C   0  0  0  0  0  0  0  0  0  0  0  0
   23.6854   24.3224   38.2101 C   0  0  0  0  0  0  0  0  0  0  0  0
   22.9394   25.3832   38.9034 N   0  0  0  0  0  0  0  0  0  0  0  0
   23.3174   25.7392   40.2476 C   0  0  0  0  0  0  0  0  0  0  0  0
   23.8368   24.8664   40.9977 O   0  0  0  0  0  0  0  0  0  0  0  0
   23.0924   27.1311   40.7805 C   0  0  0  0  0  0  0  0  0  0  0  0
   24.1928   27.5504   41.7312 C   0  0  0  0  0  0  0  0  0  0  0  0
   25.4623   27.9796   41.2730 C   0  0  0  0  0  0  0  0  0  0  0  0
   26.4436   28.3366   42.2112 C   0  0  0  0  0  0  0  0  0  0  0  0
   26.1600   28.2636   43.5799 C   0  0  0  0  0  0  0  0  0  0  0  0
   27.2073   28.6053   44.5926 C   0  0  0  0  0  0  0  0  0  0  0  0
   24.9439   27.8213   43.9933 N   0  0  0  0  0  0  0  0  0  0  0  0
   23.9692   27.4697   43.1150 C   0  0  0  0  0  0  0  0  0  0  0  0
   25.7816   28.0655   39.8042 C   0  0  0  0  0  0  0  0  0  0  0  0
   21.7670   25.9801   38.2473 C   0  0  0  0  0  0  0  0  0  0  0  0
   22.1398   26.5345   36.8611 C   0  0  0  0  0  0  0  0  0  0  0  0
  1  2  1  0
  2  3  2  0
  2  4  1  0
  4  5  2  0
  5  6  1  0
  6  7  2  0
  7  8  1  0
  8  9  2  0
  9 10  1  0
 10 11  2  0
 11 12  1  0
 12 13  2  0
 13 14  1  0
  1 15  1  0
 15 16  1  0
 16 17  1  0
 17 18  1  0
 18 19  1  0
 19 20  2  0
 19 21  1  0
 21 22  1  0
 22 23  2  0
 23 24  1  0
 24 25  2  0
 25 26  1  0
 25 27  1  0
 27 28  2  0
 23 29  1  0
 18 30  1  0
 30 31  1  0
 13  4  1  0
 31 15  1  0
 12  7  1  0
 28 22  1  0
M  END
>  <AAScore>  (1) 
252.98606650511223

>  <RootName>  (1) 
./4ZLY/04_DeltaGEst/trajectory_01/rank_00/lead_0398

$$$$
