confid_13
     RDKit          3D

 30 34  0  0  0  0  0  0  0  0999 V2000
   24.2000   26.2400   35.6900 N   0  0  0  0  0  0  0  0  0  0  0  0
   24.8500   26.2800   34.4800 C   0  0  0  0  0  0  0  0  0  0  0  0
   24.3100   25.7400   33.5400 O   0  0  0  0  0  0  0  0  0  0  0  0
   26.1800   26.9700   34.4700 C   0  0  0  0  0  0  0  0  0  0  0  0
   26.6500   27.6000   35.5500 N   0  0  0  0  0  0  0  0  0  0  0  0
   27.7900   28.2700   35.6200 N   0  0  0  0  0  0  0  0  0  0  0  0
   28.5400   28.3000   34.5100 C   0  0  0  0  0  0  0  0  0  0  0  0
   29.7700   28.9400   34.5600 C   0  0  0  0  0  0  0  0  0  0  0  0
   30.7000   28.8900   33.5000 C   0  0  0  0  0  0  0  0  0  0  0  0
   30.3700   28.1400   32.3700 C   0  0  0  0  0  0  0  0  0  0  0  0
   29.1200   27.5200   32.2800 C   0  0  0  0  0  0  0  0  0  0  0  0
   28.2100   27.6100   33.3300 C   0  0  0  0  0  0  0  0  0  0  0  0
   26.9700   26.9700   33.3100 C   0  0  0  0  0  0  0  0  0  0  0  0
   26.5300   26.2400   32.2200 N   0  0  0  0  0  0  0  0  0  0  0  0
   30.1352   29.6762   35.7397 N   0  0  0  0  0  0  0  0  0  0  0  0
   29.4834   30.9611   36.0259 C   0  0  0  0  0  0  0  0  0  0  0  0
   30.4489   31.9545   36.6858 C   0  0  0  0  0  0  0  0  0  0  0  0
   31.7503   32.0135   35.9428 C   0  0  0  0  0  0  0  0  0  0  0  0
   32.1621   33.1285   35.3042 N   0  0  0  0  0  0  0  0  0  0  0  0
   33.3347   32.7815   34.7424 C   0  0  0  0  0  0  0  0  0  0  0  0
   33.6220   31.4648   35.0516 C   0  0  0  0  0  0  0  0  0  0  0  0
   34.8164   30.6591   34.5967 C   0  0  0  0  0  0  0  0  0  0  0  0
   35.9548   31.5174   34.0262 C   0  0  0  0  0  0  0  0  0  0  0  0
   37.1694   30.6541   33.6342 C   0  0  0  0  0  0  0  0  0  0  0  0
   37.9792   29.9601   34.7369 C   0  0  0  0  0  0  0  0  0  0  0  0
   37.0828   29.9236   32.3003 C   0  0  0  0  0  0  0  0  0  0  0  0
   37.9780   31.1512   32.4397 C   0  0  0  0  0  0  0  0  0  0  0  0
   32.6056   30.9701   35.7907 N   0  0  0  0  0  0  0  0  0  0  0  0
   32.5402   29.6089   36.3580 C   0  0  0  0  0  0  0  0  0  0  0  0
   31.1169   29.1179   36.6740 C   0  0  0  0  0  0  0  0  0  0  0  0
  1  2  1  0
  2  3  2  0
  2  4  1  0
  4  5  2  0
  5  6  1  0
  6  7  2  0
  7  8  1  0
  8  9  2  0
  9 10  1  0
 10 11  2  0
 11 12  1  0
 12 13  2  0
 13 14  1  0
  8 15  1  0
 15 16  1  0
 16 17  1  0
 17 18  1  0
 18 19  2  0
 19 20  1  0
 20 21  2  0
 21 22  1  0
 22 23  1  0
 23 24  1  0
 24 25  1  0
 24 26  1  0
 26 27  1  0
 21 28  1  0
 28 29  1  0
 29 30  1  0
 13  4  1  0
 30 15  1  0
 12  7  1  0
 28 18  1  0
 27 24  1  0
M  END
>  <AAScore>  (1) 
-7.233936543692482

>  <RootName>  (1) 
./4ZLY/04_DeltaGEst/trajectory_04/rank_01/lead_0343

$$$$
