confid_7
     RDKit          3D

 27 30  0  0  0  0  0  0  0  0999 V2000
   24.4800   26.1000   36.1300 N   0  0  0  0  0  0  0  0  0  0  0  0
   25.2500   26.2500   34.9900 C   0  0  0  0  0  0  0  0  0  0  0  0
   24.7400   25.7600   33.9900 O   0  0  0  0  0  0  0  0  0  0  0  0
   26.5900   26.8900   34.9600 C   0  0  0  0  0  0  0  0  0  0  0  0
   27.0600   27.2400   36.1600 N   0  0  0  0  0  0  0  0  0  0  0  0
   28.3000   27.7100   36.2400 N   0  0  0  0  0  0  0  0  0  0  0  0
   29.0500   27.9600   35.1500 C   0  0  0  0  0  0  0  0  0  0  0  0
   30.3400   28.4900   35.2600 C   0  0  0  0  0  0  0  0  0  0  0  0
   31.1100   28.8200   34.1400 C   0  0  0  0  0  0  0  0  0  0  0  0
   30.5200   28.6700   32.8800 C   0  0  0  0  0  0  0  0  0  0  0  0
   29.2900   28.0200   32.7700 C   0  0  0  0  0  0  0  0  0  0  0  0
   28.5200   27.7100   33.8900 C   0  0  0  0  0  0  0  0  0  0  0  0
   27.2700   27.0800   33.7600 C   0  0  0  0  0  0  0  0  0  0  0  0
   26.7500   26.8800   32.4900 N   0  0  0  0  0  0  0  0  0  0  0  0
   23.4780   25.0880   36.3367 C   0  0  0  0  0  0  0  0  0  0  0  0
   23.3610   24.0333   35.4883 N   0  0  0  0  0  0  0  0  0  0  0  0
   22.4337   23.0604   35.6839 C   0  0  0  0  0  0  0  0  0  0  0  0
   22.3574   21.9162   34.6993 C   0  0  0  0  0  0  0  0  0  0  0  0
   20.9574   21.6955   34.0688 C   0  0  0  0  0  0  0  0  0  0  0  0
   19.9276   22.6150   34.6074 N   0  0  0  0  0  0  0  0  0  0  0  0
   18.8060   22.7331   33.6615 C   0  0  0  0  0  0  0  0  0  0  0  0
   19.4168   22.1731   35.9269 C   0  0  0  0  0  0  0  0  0  0  0  0
   20.5233   22.0551   36.9896 C   0  0  0  0  0  0  0  0  0  0  0  0
   21.5811   23.1231   36.8058 C   0  0  0  0  0  0  0  0  0  0  0  0
   21.7076   24.2344   37.6692 C   0  0  0  0  0  0  0  0  0  0  0  0
   22.6570   25.1732   37.4143 N   0  0  0  0  0  0  0  0  0  0  0  0
   20.8276   24.4209   38.8697 C   0  0  0  0  0  0  0  0  0  0  0  0
  1  2  1  0
  2  3  2  0
  2  4  1  0
  4  5  2  0
  5  6  1  0
  6  7  2  0
  7  8  1  0
  8  9  2  0
  9 10  1  0
 10 11  2  0
 11 12  1  0
 12 13  2  0
 13 14  1  0
  1 15  1  0
 15 16  2  0
 16 17  1  0
 17 18  1  0
 18 19  1  0
 19 20  1  0
 20 21  1  0
 20 22  1  0
 22 23  1  0
 23 24  1  0
 24 25  1  0
 25 26  2  0
 25 27  1  0
 13  4  1  0
 26 15  1  0
 12  7  1  0
 24 17  2  0
M  END
>  <AAScore>  (1) 
365.7819992016176

>  <RootName>  (1) 
./4ZLY/04_DeltaGEst/trajectory_00/rank_01/lead_0062

$$$$
