confid_16
     RDKit          3D

 24 26  0  0  0  0  0  0  0  0999 V2000
   24.4800   26.1000   36.1300 N   0  0  0  0  0  0  0  0  0  0  0  0
   25.2500   26.2500   34.9900 C   0  0  0  0  0  0  0  0  0  0  0  0
   24.7400   25.7600   33.9900 O   0  0  0  0  0  0  0  0  0  0  0  0
   26.5900   26.8900   34.9600 C   0  0  0  0  0  0  0  0  0  0  0  0
   27.0600   27.2400   36.1600 N   0  0  0  0  0  0  0  0  0  0  0  0
   28.3000   27.7100   36.2400 N   0  0  0  0  0  0  0  0  0  0  0  0
   29.0500   27.9600   35.1500 C   0  0  0  0  0  0  0  0  0  0  0  0
   30.3400   28.4900   35.2600 C   0  0  0  0  0  0  0  0  0  0  0  0
   31.1100   28.8200   34.1400 C   0  0  0  0  0  0  0  0  0  0  0  0
   30.5200   28.6700   32.8800 C   0  0  0  0  0  0  0  0  0  0  0  0
   29.2900   28.0200   32.7700 C   0  0  0  0  0  0  0  0  0  0  0  0
   28.5200   27.7100   33.8900 C   0  0  0  0  0  0  0  0  0  0  0  0
   27.2700   27.0800   33.7600 C   0  0  0  0  0  0  0  0  0  0  0  0
   26.7500   26.8800   32.4900 N   0  0  0  0  0  0  0  0  0  0  0  0
   23.0436   26.0224   36.1541 C   0  0  0  0  0  0  0  0  0  0  0  0
   22.2965   25.7229   37.2872 C   0  0  0  0  0  0  0  0  0  0  0  0
   20.9152   25.7789   37.0593 C   0  0  0  0  0  0  0  0  0  0  0  0
   19.7181   25.4752   38.3083 S   0  0  0  0  0  6  0  0  0  0  0  0
   18.5903   24.6620   37.7379 O   0  0  0  0  0  0  0  0  0  0  0  0
   20.3478   24.7093   39.4379 O   0  0  0  0  0  0  0  0  0  0  0  0
   19.0956   27.0239   38.9219 C   0  0  0  0  0  0  0  0  0  0  0  0
   20.5861   26.1381   35.7585 C   0  0  0  0  0  0  0  0  0  0  0  0
   19.3299   26.2946   35.2750 F   0  0  0  0  0  0  0  0  0  0  0  0
   21.9965   26.3877   34.8797 S   0  0  0  0  0  0  0  0  0  0  0  0
  1  2  1  0
  2  3  2  0
  2  4  1  0
  4  5  2  0
  5  6  1  0
  6  7  2  0
  7  8  1  0
  8  9  2  0
  9 10  1  0
 10 11  2  0
 11 12  1  0
 12 13  2  0
 13 14  1  0
  1 15  1  0
 15 16  2  0
 16 17  1  0
 17 18  1  0
 18 19  2  0
 18 20  2  0
 18 21  1  0
 17 22  2  0
 22 23  1  0
 22 24  1  0
 13  4  1  0
 24 15  1  0
 12  7  1  0
M  END
>  <AAScore>  (1) 
63.04398889485122

>  <RootName>  (1) 
./4ZLY/04_DeltaGEst/trajectory_00/rank_00/lead_0456

$$$$
