confid_15
     RDKit          3D

 28 31  0  0  0  0  0  0  0  0999 V2000
   24.5700   26.8800   35.5900 N   0  0  0  0  0  0  0  0  0  0  0  0
   25.5000   26.4000   34.6900 C   0  0  0  0  0  0  0  0  0  0  0  0
   25.1700   25.5200   33.9100 O   0  0  0  0  0  0  0  0  0  0  0  0
   26.8400   27.0200   34.7400 C   0  0  0  0  0  0  0  0  0  0  0  0
   27.3800   27.2800   35.9400 N   0  0  0  0  0  0  0  0  0  0  0  0
   28.6200   27.7400   36.0300 N   0  0  0  0  0  0  0  0  0  0  0  0
   29.3800   28.0000   34.9600 C   0  0  0  0  0  0  0  0  0  0  0  0
   30.6700   28.5000   35.1300 C   0  0  0  0  0  0  0  0  0  0  0  0
   31.5400   28.6100   34.0300 C   0  0  0  0  0  0  0  0  0  0  0  0
   31.0900   28.2200   32.7700 C   0  0  0  0  0  0  0  0  0  0  0  0
   29.8000   27.7000   32.6000 C   0  0  0  0  0  0  0  0  0  0  0  0
   28.9600   27.5500   33.7100 C   0  0  0  0  0  0  0  0  0  0  0  0
   27.6600   27.0300   33.5900 C   0  0  0  0  0  0  0  0  0  0  0  0
   27.1600   26.7400   32.3400 N   0  0  0  0  0  0  0  0  0  0  0  0
   33.1780   29.2208   34.2595 S   0  0  0  0  0  6  0  0  0  0  0  0
   33.9457   29.1531   32.9683 O   0  0  0  0  0  0  0  0  0  0  0  0
   33.0950   30.6568   34.6942 O   0  0  0  0  0  0  0  0  0  0  0  0
   34.0415   28.2763   35.5178 C   0  0  0  0  0  0  0  0  0  0  0  0
   34.6161   26.9338   35.0035 C   0  0  2  0  0  0  0  0  0  0  0  0
   33.4846   25.9640   34.5466 C   0  0  0  0  0  0  0  0  0  0  0  0
   33.9132   24.5122   34.2414 C   0  0  0  0  0  0  0  0  0  0  0  0
   33.8187   23.6438   35.4995 C   0  0  2  0  0  0  0  0  0  0  0  0
   35.1615   23.3489   36.0542 N   0  0  0  0  0  0  0  0  0  0  0  0
   35.1254   23.3714   37.5263 C   0  0  0  0  0  0  0  0  0  0  0  0
   35.6503   24.7239   38.0450 C   0  0  0  0  0  0  0  0  0  0  0  0
   34.9544   25.9432   37.4007 C   0  0  0  0  0  0  0  0  0  0  0  0
   35.5993   26.3473   36.0502 C   0  0  0  0  0  0  0  0  0  0  0  0
   34.3415   22.2772   35.4460 C   0  0  0  0  0  0  0  0  0  0  0  0
  1  2  1  0
  2  3  2  0
  2  4  1  0
  4  5  2  0
  5  6  1  0
  6  7  2  0
  7  8  1  0
  8  9  2  0
  9 10  1  0
 10 11  2  0
 11 12  1  0
 12 13  2  0
 13 14  1  0
  9 15  1  0
 15 16  2  0
 15 17  2  0
 15 18  1  0
 19 18  1  1
 19 20  1  0
 20 21  1  0
 22 21  1  6
 22 23  1  0
 23 24  1  0
 24 25  1  0
 25 26  1  0
 26 27  1  0
 22 28  1  0
 13  4  1  0
 27 19  1  0
 12  7  1  0
 28 23  1  0
M  END
>  <AAScore>  (1) 
3780.21361255478

>  <RootName>  (1) 
./4ZLY/04_DeltaGEst/trajectory_05/rank_01/lead_0178

$$$$
