confid_1
     RDKit          3D

 30 34  0  0  0  0  0  0  0  0999 V2000
   24.5500   26.3900   36.2500 N   0  0  0  0  0  0  0  0  0  0  0  0
   25.6000   26.1300   35.4000 C   0  0  0  0  0  0  0  0  0  0  0  0
   25.4300   25.4300   34.4200 O   0  0  0  0  0  0  0  0  0  0  0  0
   26.9800   26.6300   35.7100 C   0  0  0  0  0  0  0  0  0  0  0  0
   27.3200   26.8200   36.9800 N   0  0  0  0  0  0  0  0  0  0  0  0
   28.4700   27.4000   37.3100 N   0  0  0  0  0  0  0  0  0  0  0  0
   29.4000   27.6300   36.3700 C   0  0  0  0  0  0  0  0  0  0  0  0
   30.6600   28.0500   36.8000 C   0  0  0  0  0  0  0  0  0  0  0  0
   31.5700   28.3600   35.7800 C   0  0  0  0  0  0  0  0  0  0  0  0
   31.3700   28.1000   34.4300 C   0  0  0  0  0  0  0  0  0  0  0  0
   30.1200   27.5900   34.0500 C   0  0  0  0  0  0  0  0  0  0  0  0
   29.1500   27.3400   35.0300 C   0  0  0  0  0  0  0  0  0  0  0  0
   27.8800   26.8900   34.6600 C   0  0  0  0  0  0  0  0  0  0  0  0
   27.4800   26.6100   33.3700 N   0  0  0  0  0  0  0  0  0  0  0  0
   30.9863   28.2931   38.2244 C   0  0  0  0  0  0  0  0  0  0  0  0
   31.1257   27.1924   39.0795 C   0  0  0  0  0  0  0  0  0  0  0  0
   31.4480   27.3781   40.4277 C   0  0  0  0  0  0  0  0  0  0  0  0
   31.6490   26.1949   41.3396 C   0  0  0  0  0  0  0  0  0  0  0  0
   31.3088   26.5299   42.7296 N   0  0  0  0  0  0  0  0  0  0  0  0
   31.5545   27.8574   43.2324 C   0  0  0  0  0  0  0  0  0  0  0  0
   31.3618   28.1247   44.4497 O   0  0  0  0  0  0  0  0  0  0  0  0
   32.0806   28.9263   42.3205 C   0  0  0  0  0  0  0  0  0  0  0  0
   31.6524   28.6829   40.9024 C   0  0  0  0  0  0  0  0  0  0  0  0
   31.5148   29.7382   40.0571 N   0  0  0  0  0  0  0  0  0  0  0  0
   31.1652   29.5955   38.7482 C   0  0  0  0  0  0  0  0  0  0  0  0
   31.0158   30.8287   37.8733 C   0  0  0  0  0  0  0  0  0  0  0  0
   30.9130   32.1710   38.6077 C   0  0  0  0  0  0  0  0  0  0  0  0
   29.5134   32.3735   38.0468 C   0  0  0  0  0  0  0  0  0  0  0  0
   29.5966   31.0298   37.3390 C   0  0  0  0  0  0  0  0  0  0  0  0
   30.8380   25.4839   43.6402 C   0  0  0  0  0  0  0  0  0  0  0  0
  1  2  1  0
  2  3  2  0
  2  4  1  0
  4  5  2  0
  5  6  1  0
  6  7  2  0
  7  8  1  0
  8  9  2  0
  9 10  1  0
 10 11  2  0
 11 12  1  0
 12 13  2  0
 13 14  1  0
  8 15  1  0
 15 16  2  0
 16 17  1  0
 17 18  1  0
 18 19  1  0
 19 20  1  0
 20 21  2  0
 20 22  1  0
 22 23  1  0
 23 24  1  0
 24 25  2  0
 25 26  1  0
 26 27  1  0
 27 28  1  0
 28 29  1  0
 19 30  1  0
 13  4  1  0
 25 15  1  0
 29 26  1  0
 12  7  1  0
 23 17  2  0
M  END
>  <AAScore>  (1) 
26.513504137211275

>  <RootName>  (1) 
./4ZLY/04_DeltaGEst/trajectory_01/rank_01/lead_0419

$$$$
