confid_5
     RDKit          3D

 26 29  0  0  0  0  0  0  0  0999 V2000
   24.4800   26.1000   36.1300 N   0  0  0  0  0  0  0  0  0  0  0  0
   25.2500   26.2500   34.9900 C   0  0  0  0  0  0  0  0  0  0  0  0
   24.7400   25.7600   33.9900 O   0  0  0  0  0  0  0  0  0  0  0  0
   26.5900   26.8900   34.9600 C   0  0  0  0  0  0  0  0  0  0  0  0
   27.0600   27.2400   36.1600 N   0  0  0  0  0  0  0  0  0  0  0  0
   28.3000   27.7100   36.2400 N   0  0  0  0  0  0  0  0  0  0  0  0
   29.0500   27.9600   35.1500 C   0  0  0  0  0  0  0  0  0  0  0  0
   30.3400   28.4900   35.2600 C   0  0  0  0  0  0  0  0  0  0  0  0
   31.1100   28.8200   34.1400 C   0  0  0  0  0  0  0  0  0  0  0  0
   30.5200   28.6700   32.8800 C   0  0  0  0  0  0  0  0  0  0  0  0
   29.2900   28.0200   32.7700 C   0  0  0  0  0  0  0  0  0  0  0  0
   28.5200   27.7100   33.8900 C   0  0  0  0  0  0  0  0  0  0  0  0
   27.2700   27.0800   33.7600 C   0  0  0  0  0  0  0  0  0  0  0  0
   26.7500   26.8800   32.4900 N   0  0  0  0  0  0  0  0  0  0  0  0
   23.0444   26.0286   36.1570 C   0  0  0  0  0  0  0  0  0  0  0  0
   22.3574   25.7075   37.2751 N   0  0  0  0  0  0  0  0  0  0  0  0
   21.0116   25.7530   37.0773 C   0  0  0  0  0  0  0  0  0  0  0  0
   20.0457   25.5129   38.1964 C   0  0  0  0  0  0  0  0  0  0  0  0
   19.1083   24.3176   37.9375 C   0  0  0  0  0  0  0  0  0  0  0  0
   18.3480   24.3481   36.6610 N   0  0  0  0  0  0  0  0  0  0  0  0
   18.8153   23.3513   35.6823 C   0  0  0  0  0  0  0  0  0  0  0  0
   18.0768   25.6789   36.0728 C   0  0  0  0  0  0  0  0  0  0  0  0
   19.2437   26.2315   35.2909 C   0  0  0  0  0  0  0  0  0  0  0  0
   19.0306   26.7808   34.1770 O   0  0  0  0  0  0  0  0  0  0  0  0
   20.6220   26.1418   35.7967 C   0  0  0  0  0  0  0  0  0  0  0  0
   22.0083   26.4236   34.8846 S   0  0  0  0  0  0  0  0  0  0  0  0
  1  2  1  0
  2  3  2  0
  2  4  1  0
  4  5  2  0
  5  6  1  0
  6  7  2  0
  7  8  1  0
  8  9  2  0
  9 10  1  0
 10 11  2  0
 11 12  1  0
 12 13  2  0
 13 14  1  0
  1 15  1  0
 15 16  2  0
 16 17  1  0
 17 18  1  0
 18 19  1  0
 19 20  1  0
 20 21  1  0
 20 22  1  0
 22 23  1  0
 23 24  2  0
 23 25  1  0
 25 26  1  0
 13  4  1  0
 26 15  1  0
 12  7  1  0
 25 17  2  0
M  END
>  <AAScore>  (1) 
1799.3489913117835

>  <RootName>  (1) 
./4ZLY/04_DeltaGEst/trajectory_00/rank_01/lead_0245

$$$$
