confid_4
     RDKit          3D

 27 30  0  0  0  0  0  0  0  0999 V2000
   24.4800   26.1000   36.1300 N   0  0  0  0  0  0  0  0  0  0  0  0
   25.2500   26.2500   34.9900 C   0  0  0  0  0  0  0  0  0  0  0  0
   24.7400   25.7600   33.9900 O   0  0  0  0  0  0  0  0  0  0  0  0
   26.5900   26.8900   34.9600 C   0  0  0  0  0  0  0  0  0  0  0  0
   27.0600   27.2400   36.1600 N   0  0  0  0  0  0  0  0  0  0  0  0
   28.3000   27.7100   36.2400 N   0  0  0  0  0  0  0  0  0  0  0  0
   29.0500   27.9600   35.1500 C   0  0  0  0  0  0  0  0  0  0  0  0
   30.3400   28.4900   35.2600 C   0  0  0  0  0  0  0  0  0  0  0  0
   31.1100   28.8200   34.1400 C   0  0  0  0  0  0  0  0  0  0  0  0
   30.5200   28.6700   32.8800 C   0  0  0  0  0  0  0  0  0  0  0  0
   29.2900   28.0200   32.7700 C   0  0  0  0  0  0  0  0  0  0  0  0
   28.5200   27.7100   33.8900 C   0  0  0  0  0  0  0  0  0  0  0  0
   27.2700   27.0800   33.7600 C   0  0  0  0  0  0  0  0  0  0  0  0
   26.7500   26.8800   32.4900 N   0  0  0  0  0  0  0  0  0  0  0  0
   23.3777   25.1783   36.2535 C   0  0  0  0  0  0  0  0  0  0  0  0
   23.4368   23.9716   35.6062 N   0  0  0  0  0  0  0  0  0  0  0  0
   22.4574   23.0322   35.7091 C   0  0  0  0  0  0  0  0  0  0  0  0
   21.3593   23.2968   36.5167 C   0  0  0  0  0  0  0  0  0  0  0  0
   20.1848   22.4045   36.7895 C   0  0  0  0  0  0  0  0  0  0  0  0
   19.3745   23.1974   37.7150 N   0  0  0  0  0  0  0  0  0  0  0  0
   18.0502   22.8187   38.2022 C   0  0  0  0  0  0  0  0  0  0  0  0
   18.0853   22.5631   39.7032 C   0  0  0  0  0  0  0  0  0  0  0  0
   20.0204   24.4475   37.9340 C   0  0  0  0  0  0  0  0  0  0  0  0
   19.5548   25.3580   38.6687 O   0  0  0  0  0  0  0  0  0  0  0  0
   21.2625   24.4979   37.1838 C   0  0  0  0  0  0  0  0  0  0  0  0
   22.2515   25.4899   37.0635 C   0  0  0  0  0  0  0  0  0  0  0  0
   22.1370   26.8083   37.7853 C   0  0  0  0  0  0  0  0  0  0  0  0
  1  2  1  0
  2  3  2  0
  2  4  1  0
  4  5  2  0
  5  6  1  0
  6  7  2  0
  7  8  1  0
  8  9  2  0
  9 10  1  0
 10 11  2  0
 11 12  1  0
 12 13  2  0
 13 14  1  0
  1 15  1  0
 15 16  2  0
 16 17  1  0
 17 18  2  0
 18 19  1  0
 19 20  1  0
 20 21  1  0
 21 22  1  0
 20 23  1  0
 23 24  2  0
 23 25  1  0
 25 26  2  0
 26 27  1  0
 13  4  1  0
 26 15  1  0
 12  7  1  0
 25 18  1  0
M  END
>  <AAScore>  (1) 
16659.429735545153

>  <RootName>  (1) 
./4ZLY/04_DeltaGEst/trajectory_00/rank_01/lead_0103

$$$$
