confid_6
     RDKit          3D

 29 32  0  0  0  0  0  0  0  0999 V2000
   24.2000   26.2400   35.6900 N   0  0  0  0  0  0  0  0  0  0  0  0
   24.8500   26.2800   34.4800 C   0  0  0  0  0  0  0  0  0  0  0  0
   24.3100   25.7400   33.5400 O   0  0  0  0  0  0  0  0  0  0  0  0
   26.1800   26.9700   34.4700 C   0  0  0  0  0  0  0  0  0  0  0  0
   26.6500   27.6000   35.5500 N   0  0  0  0  0  0  0  0  0  0  0  0
   27.7900   28.2700   35.6200 N   0  0  0  0  0  0  0  0  0  0  0  0
   28.5400   28.3000   34.5100 C   0  0  0  0  0  0  0  0  0  0  0  0
   29.7700   28.9400   34.5600 C   0  0  0  0  0  0  0  0  0  0  0  0
   30.7000   28.8900   33.5000 C   0  0  0  0  0  0  0  0  0  0  0  0
   30.3700   28.1400   32.3700 C   0  0  0  0  0  0  0  0  0  0  0  0
   29.1200   27.5200   32.2800 C   0  0  0  0  0  0  0  0  0  0  0  0
   28.2100   27.6100   33.3300 C   0  0  0  0  0  0  0  0  0  0  0  0
   26.9700   26.9700   33.3100 C   0  0  0  0  0  0  0  0  0  0  0  0
   26.5300   26.2400   32.2200 N   0  0  0  0  0  0  0  0  0  0  0  0
   30.1397   29.6756   35.7362 N   0  0  0  0  0  0  0  0  0  0  0  0
   31.1182   29.1153   36.6704 C   0  0  0  0  0  0  0  0  0  0  0  0
   32.1372   30.1895   37.0593 C   0  0  0  0  0  0  0  0  0  0  0  0
   31.4824   31.4518   37.4500 N   0  0  0  0  0  0  0  0  0  0  0  0
   32.2364   32.4842   38.1277 C   0  0  0  0  0  0  0  0  0  0  0  0
   33.6322   32.5728   38.0051 C   0  0  0  0  0  0  0  0  0  0  0  0
   34.3251   33.5824   38.6740 C   0  0  0  0  0  0  0  0  0  0  0  0
   35.6742   33.6504   38.5390 F   0  0  0  0  0  0  0  0  0  0  0  0
   33.6311   34.5138   39.4656 C   0  0  0  0  0  0  0  0  0  0  0  0
   32.2281   34.3933   39.5702 C   0  0  0  0  0  0  0  0  0  0  0  0
   31.4118   35.3428   40.3977 C   0  0  0  0  0  0  0  0  0  0  0  0
   31.5866   33.3957   38.9034 N   0  0  0  0  0  0  0  0  0  0  0  0
   34.3743   35.6090   40.1887 C   0  0  0  0  0  0  0  0  0  0  0  0
   30.0245   31.5962   37.3013 C   0  0  0  0  0  0  0  0  0  0  0  0
   29.5531   31.0000   35.9700 C   0  0  0  0  0  0  0  0  0  0  0  0
  1  2  1  0
  2  3  2  0
  2  4  1  0
  4  5  2  0
  5  6  1  0
  6  7  2  0
  7  8  1  0
  8  9  2  0
  9 10  1  0
 10 11  2  0
 11 12  1  0
 12 13  2  0
 13 14  1  0
  8 15  1  0
 15 16  1  0
 16 17  1  0
 17 18  1  0
 18 19  1  0
 19 20  2  0
 20 21  1  0
 21 22  1  0
 21 23  2  0
 23 24  1  0
 24 25  1  0
 24 26  2  0
 23 27  1  0
 18 28  1  0
 28 29  1  0
 13  4  1  0
 29 15  1  0
 12  7  1  0
 26 19  1  0
M  END
>  <AAScore>  (1) 
-8.288616455028947

>  <RootName>  (1) 
./4ZLY/04_DeltaGEst/trajectory_04/rank_01/lead_0465

$$$$
