confid_5
     RDKit          3D

 28 31  0  0  0  0  0  0  0  0999 V2000
   24.2000   26.2400   35.6900 N   0  0  0  0  0  0  0  0  0  0  0  0
   24.8500   26.2800   34.4800 C   0  0  0  0  0  0  0  0  0  0  0  0
   24.3100   25.7400   33.5400 O   0  0  0  0  0  0  0  0  0  0  0  0
   26.1800   26.9700   34.4700 C   0  0  0  0  0  0  0  0  0  0  0  0
   26.6500   27.6000   35.5500 N   0  0  0  0  0  0  0  0  0  0  0  0
   27.7900   28.2700   35.6200 N   0  0  0  0  0  0  0  0  0  0  0  0
   28.5400   28.3000   34.5100 C   0  0  0  0  0  0  0  0  0  0  0  0
   29.7700   28.9400   34.5600 C   0  0  0  0  0  0  0  0  0  0  0  0
   30.7000   28.8900   33.5000 C   0  0  0  0  0  0  0  0  0  0  0  0
   30.3700   28.1400   32.3700 C   0  0  0  0  0  0  0  0  0  0  0  0
   29.1200   27.5200   32.2800 C   0  0  0  0  0  0  0  0  0  0  0  0
   28.2100   27.6100   33.3300 C   0  0  0  0  0  0  0  0  0  0  0  0
   26.9700   26.9700   33.3100 C   0  0  0  0  0  0  0  0  0  0  0  0
   26.5300   26.2400   32.2200 N   0  0  0  0  0  0  0  0  0  0  0  0
   30.1355   29.6637   35.7503 N   0  0  0  0  0  0  0  0  0  0  0  0
   31.0700   29.0149   36.6821 C   0  0  0  0  0  0  0  0  0  0  0  0
   30.6687   29.2960   38.1326 C   0  0  0  0  0  0  0  0  0  0  0  0
   30.4828   30.7957   38.3632 C   0  0  0  0  0  0  0  0  0  0  0  0
   29.5310   31.3266   37.3771 N   0  0  0  0  0  0  0  0  0  0  0  0
   29.8284   31.1051   35.9334 C   0  0  0  0  0  0  0  0  0  0  0  0
   28.6614   31.5783   35.0087 C   0  0  0  0  0  0  0  0  0  0  0  0
   28.4547   33.1099   35.0787 C   0  0  0  0  0  0  0  0  0  0  0  0
   29.4355   33.7574   35.8696 O   0  0  0  0  0  0  0  0  0  0  0  0
   30.7293   33.4553   35.3851 C   0  0  0  0  0  0  0  0  0  0  0  0
   31.0611   31.9505   35.5079 C   0  0  0  0  0  0  0  0  0  0  0  0
   28.2029   31.5933   37.8639 C   0  0  0  0  0  0  0  0  0  0  0  0
   27.2688   30.7792   37.6351 O   0  0  0  0  0  0  0  0  0  0  0  0
   27.9481   32.7770   38.7377 C   0  0  0  0  0  0  0  0  0  0  0  0
  1  2  1  0
  2  3  2  0
  2  4  1  0
  4  5  2  0
  5  6  1  0
  6  7  2  0
  7  8  1  0
  8  9  2  0
  9 10  1  0
 10 11  2  0
 11 12  1  0
 12 13  2  0
 13 14  1  0
  8 15  1  0
 15 16  1  0
 16 17  1  0
 17 18  1  0
 18 19  1  0
 19 20  1  0
 20 21  1  0
 21 22  1  0
 22 23  1  0
 23 24  1  0
 24 25  1  0
 19 26  1  0
 26 27  2  0
 26 28  1  0
 13  4  1  0
 20 15  1  0
 12  7  1  0
 25 20  1  0
M  END
>  <AAScore>  (1) 
-7.839120243818651

>  <RootName>  (1) 
./4ZLY/04_DeltaGEst/trajectory_04/rank_01/lead_0284

$$$$
