confid_12
     RDKit          3D

 28 31  0  0  0  0  0  0  0  0999 V2000
   24.5700   26.8800   35.5900 N   0  0  0  0  0  0  0  0  0  0  0  0
   25.5000   26.4000   34.6900 C   0  0  0  0  0  0  0  0  0  0  0  0
   25.1700   25.5200   33.9100 O   0  0  0  0  0  0  0  0  0  0  0  0
   26.8400   27.0200   34.7400 C   0  0  0  0  0  0  0  0  0  0  0  0
   27.3800   27.2800   35.9400 N   0  0  0  0  0  0  0  0  0  0  0  0
   28.6200   27.7400   36.0300 N   0  0  0  0  0  0  0  0  0  0  0  0
   29.3800   28.0000   34.9600 C   0  0  0  0  0  0  0  0  0  0  0  0
   30.6700   28.5000   35.1300 C   0  0  0  0  0  0  0  0  0  0  0  0
   31.5400   28.6100   34.0300 C   0  0  0  0  0  0  0  0  0  0  0  0
   31.0900   28.2200   32.7700 C   0  0  0  0  0  0  0  0  0  0  0  0
   29.8000   27.7000   32.6000 C   0  0  0  0  0  0  0  0  0  0  0  0
   28.9600   27.5500   33.7100 C   0  0  0  0  0  0  0  0  0  0  0  0
   27.6600   27.0300   33.5900 C   0  0  0  0  0  0  0  0  0  0  0  0
   27.1600   26.7400   32.3400 N   0  0  0  0  0  0  0  0  0  0  0  0
   23.3656   26.1909   35.9680 C   0  0  0  0  0  0  0  0  0  0  0  0
   22.2720   26.9186   36.3123 N   0  0  0  0  0  0  0  0  0  0  0  0
   21.1100   26.3392   36.7083 C   0  0  0  0  0  0  0  0  0  0  0  0
   20.9925   24.9407   36.7772 C   0  0  0  0  0  0  0  0  0  0  0  0
   19.7382   24.3452   37.4002 C   0  0  0  0  0  0  0  0  0  0  0  0
   19.1128   23.2516   36.6299 N   0  0  0  0  0  0  0  0  0  0  0  0
   17.8962   22.6725   37.1605 C   0  0  0  0  0  0  0  0  0  0  0  0
   17.2259   23.3056   38.0215 O   0  0  0  0  0  0  0  0  0  0  0  0
   17.3910   21.3305   36.7195 C   0  0  0  0  0  0  0  0  0  0  0  0
   19.7997   22.6521   35.4779 C   0  0  0  0  0  0  0  0  0  0  0  0
   21.0512   21.9795   35.9474 C   0  0  0  0  0  0  0  0  0  0  0  0
   22.0929   22.6755   36.4099 C   0  0  0  0  0  0  0  0  0  0  0  0
   22.1213   24.1558   36.4299 C   0  0  0  0  0  0  0  0  0  0  0  0
   23.3114   24.7915   36.0498 C   0  0  0  0  0  0  0  0  0  0  0  0
  1  2  1  0
  2  3  2  0
  2  4  1  0
  4  5  2  0
  5  6  1  0
  6  7  2  0
  7  8  1  0
  8  9  2  0
  9 10  1  0
 10 11  2  0
 11 12  1  0
 12 13  2  0
 13 14  1  0
  1 15  1  0
 15 16  2  0
 16 17  1  0
 17 18  2  0
 18 19  1  0
 19 20  1  0
 20 21  1  0
 21 22  2  0
 21 23  1  0
 20 24  1  0
 24 25  1  0
 25 26  2  0
 26 27  1  0
 27 28  2  0
 13  4  1  0
 28 15  1  0
 12  7  1  0
 27 18  1  0
M  END
>  <AAScore>  (1) 
1386.2304479481056

>  <RootName>  (1) 
./4ZLY/04_DeltaGEst/trajectory_05/rank_00/lead_0101

$$$$
