confid_6
     RDKit          3D

 30 33  0  0  0  0  0  0  0  0999 V2000
   24.6900   26.1200   35.5300 N   0  0  0  0  0  0  0  0  0  0  0  0
   25.6600   25.6700   34.6600 C   0  0  0  0  0  0  0  0  0  0  0  0
   25.2400   25.0100   33.7200 O   0  0  0  0  0  0  0  0  0  0  0  0
   27.0300   26.2200   34.8800 C   0  0  0  0  0  0  0  0  0  0  0  0
   27.3500   26.7300   36.0700 N   0  0  0  0  0  0  0  0  0  0  0  0
   28.5700   27.1800   36.3300 N   0  0  0  0  0  0  0  0  0  0  0  0
   29.5300   27.1100   35.3900 C   0  0  0  0  0  0  0  0  0  0  0  0
   30.8300   27.5700   35.6500 C   0  0  0  0  0  0  0  0  0  0  0  0
   31.8500   27.5400   34.6900 C   0  0  0  0  0  0  0  0  0  0  0  0
   31.5100   27.1200   33.4000 C   0  0  0  0  0  0  0  0  0  0  0  0
   30.2200   26.6300   33.1100 C   0  0  0  0  0  0  0  0  0  0  0  0
   29.2400   26.6600   34.1000 C   0  0  0  0  0  0  0  0  0  0  0  0
   27.9300   26.2600   33.8100 C   0  0  0  0  0  0  0  0  0  0  0  0
   27.5200   25.7100   32.6100 N   0  0  0  0  0  0  0  0  0  0  0  0
   31.1514   28.0609   36.9601 N   0  0  0  0  0  0  0  0  0  0  0  0
   30.7512   29.4325   37.3134 C   0  0  0  0  0  0  0  0  0  0  0  0
   30.6862   29.6824   38.8266 C   0  0  0  0  0  0  0  0  0  0  0  0
   29.7906   28.6893   39.5187 C   0  0  0  0  0  0  0  0  0  0  0  0
   29.8840   27.3001   39.5090 C   0  0  0  0  0  0  0  0  0  0  0  0
   28.8859   26.7829   40.2517 N   0  0  0  0  0  0  0  0  0  0  0  0
   28.1655   27.7838   40.7328 N   0  0  0  0  0  0  0  0  0  0  0  0
   27.0021   27.5731   41.5961 C   0  0  0  0  0  0  0  0  0  0  0  0
   27.4209   27.5029   43.0644 C   0  0  0  0  0  0  0  0  0  0  0  0
   26.3036   27.3002   43.8531 F   0  0  0  0  0  0  0  0  0  0  0  0
   28.3004   26.4519   43.2555 F   0  0  0  0  0  0  0  0  0  0  0  0
   28.0328   28.6819   43.4481 F   0  0  0  0  0  0  0  0  0  0  0  0
   28.6977   28.9607   40.3278 C   0  0  0  0  0  0  0  0  0  0  0  0
   28.1442   30.3252   40.6287 C   0  0  0  0  0  0  0  0  0  0  0  0
   30.8783   26.4258   38.7897 C   0  0  0  0  0  0  0  0  0  0  0  0
   31.8645   27.1802   37.8937 C   0  0  0  0  0  0  0  0  0  0  0  0
  1  2  1  0
  2  3  2  0
  2  4  1  0
  4  5  2  0
  5  6  1  0
  6  7  2  0
  7  8  1  0
  8  9  2  0
  9 10  1  0
 10 11  2  0
 11 12  1  0
 12 13  2  0
 13 14  1  0
  8 15  1  0
 15 16  1  0
 16 17  1  0
 17 18  1  0
 18 19  1  0
 19 20  2  0
 20 21  1  0
 21 22  1  0
 22 23  1  0
 23 24  1  0
 23 25  1  0
 23 26  1  0
 21 27  1  0
 27 28  1  0
 19 29  1  0
 29 30  1  0
 13  4  1  0
 30 15  1  0
 12  7  1  0
 27 18  2  0
M  END
>  <AAScore>  (1) 
-1.213529918440566

>  <RootName>  (1) 
./4ZLY/04_DeltaGEst/trajectory_02/rank_01/lead_0261

$$$$
