confid_13
     RDKit          3D

 28 31  0  0  0  0  0  0  0  0999 V2000
   24.5700   26.8800   35.5900 N   0  0  0  0  0  0  0  0  0  0  0  0
   25.5000   26.4000   34.6900 C   0  0  0  0  0  0  0  0  0  0  0  0
   25.1700   25.5200   33.9100 O   0  0  0  0  0  0  0  0  0  0  0  0
   26.8400   27.0200   34.7400 C   0  0  0  0  0  0  0  0  0  0  0  0
   27.3800   27.2800   35.9400 N   0  0  0  0  0  0  0  0  0  0  0  0
   28.6200   27.7400   36.0300 N   0  0  0  0  0  0  0  0  0  0  0  0
   29.3800   28.0000   34.9600 C   0  0  0  0  0  0  0  0  0  0  0  0
   30.6700   28.5000   35.1300 C   0  0  0  0  0  0  0  0  0  0  0  0
   31.5400   28.6100   34.0300 C   0  0  0  0  0  0  0  0  0  0  0  0
   31.0900   28.2200   32.7700 C   0  0  0  0  0  0  0  0  0  0  0  0
   29.8000   27.7000   32.6000 C   0  0  0  0  0  0  0  0  0  0  0  0
   28.9600   27.5500   33.7100 C   0  0  0  0  0  0  0  0  0  0  0  0
   27.6600   27.0300   33.5900 C   0  0  0  0  0  0  0  0  0  0  0  0
   27.1600   26.7400   32.3400 N   0  0  0  0  0  0  0  0  0  0  0  0
   23.1805   26.5075   35.5674 C   0  0  0  0  0  0  0  0  0  0  0  0
   22.5295   26.1871   34.4280 N   0  0  0  0  0  0  0  0  0  0  0  0
   21.2569   25.9857   34.8167 C   0  0  0  0  0  0  0  0  0  0  0  0
   21.1527   26.1923   36.1758 C   0  0  0  0  0  0  0  0  0  0  0  0
   19.9008   25.9995   36.9862 C   0  0  0  0  0  0  0  0  0  0  0  0
   19.8280   24.6004   37.4851 N   0  0  0  0  0  0  0  0  0  0  0  0
   19.0888   23.7660   36.5140 C   0  0  0  0  0  0  0  0  0  0  0  0
   19.3095   24.5357   38.8888 C   0  0  1  0  0  0  0  0  0  0  0  0
   18.5674   23.2252   39.2406 C   0  0  0  0  0  0  0  0  0  0  0  0
   20.4795   24.6920   39.8865 C   0  0  0  0  0  0  0  0  0  0  0  0
   21.1991   25.8846   39.6434 O   0  0  0  0  0  0  0  0  0  0  0  0
   22.4269   25.6324   38.9850 C   0  0  0  0  0  0  0  0  0  0  0  0
   22.7524   26.8052   38.0517 C   0  0  0  0  0  0  0  0  0  0  0  0
   22.3751   26.5122   36.6584 N   0  0  0  0  0  0  0  0  0  0  0  0
  1  2  1  0
  2  3  2  0
  2  4  1  0
  4  5  2  0
  5  6  1  0
  6  7  2  0
  7  8  1  0
  8  9  2  0
  9 10  1  0
 10 11  2  0
 11 12  1  0
 12 13  2  0
 13 14  1  0
  1 15  1  0
 15 16  2  0
 16 17  1  0
 17 18  2  0
 18 19  1  0
 19 20  1  0
 20 21  1  0
 20 22  1  0
 22 23  1  1
 22 24  1  0
 24 25  1  0
 25 26  1  0
 26 27  1  0
 27 28  1  0
 13  4  1  0
 28 15  1  0
 12  7  1  0
 28 18  1  0
M  END
>  <AAScore>  (1) 
1127.8633859251725

>  <RootName>  (1) 
./4ZLY/04_DeltaGEst/trajectory_05/rank_00/lead_0179

$$$$
