confid_1
     RDKit          3D

 30 34  0  0  0  0  0  0  0  0999 V2000
   24.2000   26.2400   35.6900 N   0  0  0  0  0  0  0  0  0  0  0  0
   24.8500   26.2800   34.4800 C   0  0  0  0  0  0  0  0  0  0  0  0
   24.3100   25.7400   33.5400 O   0  0  0  0  0  0  0  0  0  0  0  0
   26.1800   26.9700   34.4700 C   0  0  0  0  0  0  0  0  0  0  0  0
   26.6500   27.6000   35.5500 N   0  0  0  0  0  0  0  0  0  0  0  0
   27.7900   28.2700   35.6200 N   0  0  0  0  0  0  0  0  0  0  0  0
   28.5400   28.3000   34.5100 C   0  0  0  0  0  0  0  0  0  0  0  0
   29.7700   28.9400   34.5600 C   0  0  0  0  0  0  0  0  0  0  0  0
   30.7000   28.8900   33.5000 C   0  0  0  0  0  0  0  0  0  0  0  0
   30.3700   28.1400   32.3700 C   0  0  0  0  0  0  0  0  0  0  0  0
   29.1200   27.5200   32.2800 C   0  0  0  0  0  0  0  0  0  0  0  0
   28.2100   27.6100   33.3300 C   0  0  0  0  0  0  0  0  0  0  0  0
   26.9700   26.9700   33.3100 C   0  0  0  0  0  0  0  0  0  0  0  0
   26.5300   26.2400   32.2200 N   0  0  0  0  0  0  0  0  0  0  0  0
   30.1370   29.6821   35.7344 N   0  0  0  0  0  0  0  0  0  0  0  0
   29.5037   30.9831   35.9879 C   0  0  0  0  0  0  0  0  0  0  0  0
   30.1689   31.7152   37.1599 C   0  0  0  0  0  0  0  0  0  0  0  0
   31.6304   31.6079   37.0620 N   0  0  0  0  0  0  0  0  0  0  0  0
   32.4542   32.7078   37.4838 C   0  0  0  0  0  0  0  0  0  0  0  0
   32.0892   33.4304   38.4503 O   0  0  0  0  0  0  0  0  0  0  0  0
   33.7389   32.9906   36.8196 C   0  0  0  0  0  0  0  0  0  0  0  0
   33.9175   33.0590   35.4200 C   0  0  0  0  0  0  0  0  0  0  0  0
   35.2389   33.2875   35.0469 C   0  0  0  0  0  0  0  0  0  0  0  0
   36.1570   33.4569   36.4426 S   0  0  0  0  0  0  0  0  0  0  0  0
   34.9061   33.2249   37.5383 C   0  0  0  0  0  0  0  0  0  0  0  0
   32.8095   32.9045   34.4105 C   0  0  0  0  0  0  0  0  0  0  0  0
   32.7180   34.0263   33.3835 C   0  0  0  0  0  0  0  0  0  0  0  0
   31.7034   33.9469   34.5080 C   0  0  0  0  0  0  0  0  0  0  0  0
   32.2641   30.3093   36.7778 C   0  0  0  0  0  0  0  0  0  0  0  0
   31.2227   29.2027   36.5945 C   0  0  0  0  0  0  0  0  0  0  0  0
  1  2  1  0
  2  3  2  0
  2  4  1  0
  4  5  2  0
  5  6  1  0
  6  7  2  0
  7  8  1  0
  8  9  2  0
  9 10  1  0
 10 11  2  0
 11 12  1  0
 12 13  2  0
 13 14  1  0
  8 15  1  0
 15 16  1  0
 16 17  1  0
 17 18  1  0
 18 19  1  0
 19 20  2  0
 19 21  1  0
 21 22  1  0
 22 23  2  0
 23 24  1  0
 24 25  1  0
 22 26  1  0
 26 27  1  0
 27 28  1  0
 18 29  1  0
 29 30  1  0
 13  4  1  0
 30 15  1  0
 12  7  1  0
 25 21  2  0
 28 26  1  0
M  END
>  <AAScore>  (1) 
-8.488263497107882

>  <RootName>  (1) 
./4ZLY/04_DeltaGEst/trajectory_04/rank_01/lead_0499

$$$$
