confid_11
     RDKit          3D

 29 33  0  0  0  0  0  0  0  0999 V2000
   25.3300   26.2600   34.7600 N   0  0  0  0  0  0  0  0  0  0  0  0
   26.1200   25.9200   33.6900 C   0  0  0  0  0  0  0  0  0  0  0  0
   25.6300   25.1100   32.9400 O   0  0  0  0  0  0  0  0  0  0  0  0
   27.5200   26.3800   33.4600 C   0  0  0  0  0  0  0  0  0  0  0  0
   28.1600   26.6300   34.6100 N   0  0  0  0  0  0  0  0  0  0  0  0
   29.4800   26.8500   34.5700 N   0  0  0  0  0  0  0  0  0  0  0  0
   30.1900   26.7800   33.4400 C   0  0  0  0  0  0  0  0  0  0  0  0
   31.5600   27.0500   33.5000 C   0  0  0  0  0  0  0  0  0  0  0  0
   32.2700   27.2400   32.3100 C   0  0  0  0  0  0  0  0  0  0  0  0
   31.6100   27.2500   31.0800 C   0  0  0  0  0  0  0  0  0  0  0  0
   30.2700   26.8700   31.0600 C   0  0  0  0  0  0  0  0  0  0  0  0
   29.5100   26.6900   32.2300 C   0  0  0  0  0  0  0  0  0  0  0  0
   28.1400   26.4100   32.2000 C   0  0  0  0  0  0  0  0  0  0  0  0
   27.4300   26.1300   31.0500 N   0  0  0  0  0  0  0  0  0  0  0  0
   23.9175   25.9929   34.8645 C   0  0  0  0  0  0  0  0  0  0  0  0
   23.1401   25.6156   33.8281 N   0  0  0  0  0  0  0  0  0  0  0  0
   21.8984   25.5457   34.3543 C   0  0  0  0  0  0  0  0  0  0  0  0
   20.6971   25.1549   33.5278 C   0  0  0  0  0  0  0  0  0  0  0  0
   19.5706   24.4500   34.3114 C   0  0  0  0  0  0  0  0  0  0  0  0
   20.1092   23.7319   35.4922 N   0  0  0  0  0  0  0  0  0  0  0  0
   20.0561   24.5683   36.7147 C   0  0  0  0  0  0  0  0  0  0  0  0
   20.6719   25.9636   36.5110 C   0  0  0  0  0  0  0  0  0  0  0  0
   21.8644   25.8888   35.6642 N   0  0  0  0  0  0  0  0  0  0  0  0
   23.1444   26.1507   36.0011 C   0  0  0  0  0  0  0  0  0  0  0  0
   23.6114   26.5857   37.3598 C   0  0  0  0  0  0  0  0  0  0  0  0
   19.4180   22.4456   35.7177 C   0  0  0  0  0  0  0  0  0  0  0  0
   19.9581   21.3861   34.7442 C   0  0  0  0  0  0  0  0  0  0  0  0
   21.2811   20.7561   35.1521 C   0  0  0  0  0  0  0  0  0  0  0  0
   19.9908   19.9583   35.2689 C   0  0  0  0  0  0  0  0  0  0  0  0
  1  2  1  0
  2  3  2  0
  2  4  1  0
  4  5  2  0
  5  6  1  0
  6  7  2  0
  7  8  1  0
  8  9  2  0
  9 10  1  0
 10 11  2  0
 11 12  1  0
 12 13  2  0
 13 14  1  0
  1 15  1  0
 15 16  1  0
 16 17  2  0
 17 18  1  0
 18 19  1  0
 19 20  1  0
 20 21  1  0
 21 22  1  0
 22 23  1  0
 23 24  1  0
 24 25  1  0
 20 26  1  0
 26 27  1  0
 27 28  1  0
 28 29  1  0
 13  4  1  0
 24 15  2  0
 29 27  1  0
 12  7  1  0
 23 17  1  0
M  END
>  <AAScore>  (1) 
12608.159417268109

>  <RootName>  (1) 
./4ZLY/04_DeltaGEst/trajectory_03/rank_00/lead_0011

$$$$
