confid_9
     RDKit          3D

 26 29  0  0  0  0  0  0  0  0999 V2000
   24.6900   26.1200   35.5300 N   0  0  0  0  0  0  0  0  0  0  0  0
   25.6600   25.6700   34.6600 C   0  0  0  0  0  0  0  0  0  0  0  0
   25.2400   25.0100   33.7200 O   0  0  0  0  0  0  0  0  0  0  0  0
   27.0300   26.2200   34.8800 C   0  0  0  0  0  0  0  0  0  0  0  0
   27.3500   26.7300   36.0700 N   0  0  0  0  0  0  0  0  0  0  0  0
   28.5700   27.1800   36.3300 N   0  0  0  0  0  0  0  0  0  0  0  0
   29.5300   27.1100   35.3900 C   0  0  0  0  0  0  0  0  0  0  0  0
   30.8300   27.5700   35.6500 C   0  0  0  0  0  0  0  0  0  0  0  0
   31.8500   27.5400   34.6900 C   0  0  0  0  0  0  0  0  0  0  0  0
   31.5100   27.1200   33.4000 C   0  0  0  0  0  0  0  0  0  0  0  0
   30.2200   26.6300   33.1100 C   0  0  0  0  0  0  0  0  0  0  0  0
   29.2400   26.6600   34.1000 C   0  0  0  0  0  0  0  0  0  0  0  0
   27.9300   26.2600   33.8100 C   0  0  0  0  0  0  0  0  0  0  0  0
   27.5200   25.7100   32.6100 N   0  0  0  0  0  0  0  0  0  0  0  0
   31.1773   28.1010   36.9965 C   0  0  0  0  0  0  0  0  0  0  0  0
   32.4871   27.9677   37.6030 C   0  0  0  0  0  0  0  0  0  0  0  0
   32.2500   28.6046   38.7738 C   0  0  0  0  0  0  0  0  0  0  0  0
   32.5673   29.1486   40.1440 C   0  0  0  0  0  0  0  0  0  0  0  0
   31.2042   29.6084   40.1633 C   0  0  2  0  0  0  0  0  0  0  0  0
   31.1088   30.9921   40.1462 F   0  0  0  0  0  0  0  0  0  0  0  0
   30.3086   28.9515   41.2304 C   0  0  0  0  0  0  0  0  0  0  0  0
   28.8409   29.3652   41.0711 C   0  0  0  0  0  0  0  0  0  0  0  0
   28.0536   28.7631   42.0815 O   0  0  0  0  0  0  0  0  0  0  0  0
   27.4305   27.5963   41.5906 C   0  0  0  0  0  0  0  0  0  0  0  0
   30.9844   29.0525   38.8458 N   0  0  0  0  0  0  0  0  0  0  0  0
   30.2630   28.7837   37.7891 N   0  0  0  0  0  0  0  0  0  0  0  0
  1  2  1  0
  2  3  2  0
  2  4  1  0
  4  5  2  0
  5  6  1  0
  6  7  2  0
  7  8  1  0
  8  9  2  0
  9 10  1  0
 10 11  2  0
 11 12  1  0
 12 13  2  0
 13 14  1  0
  8 15  1  0
 15 16  1  0
 16 17  2  0
 17 18  1  0
 18 19  1  0
 19 20  1  6
 19 21  1  0
 21 22  1  0
 22 23  1  0
 23 24  1  0
 19 25  1  0
 25 26  1  0
 13  4  1  0
 26 15  2  0
 12  7  1  0
 25 17  1  0
M  END
>  <AAScore>  (1) 
34.468107353320896

>  <RootName>  (1) 
./4ZLY/04_DeltaGEst/trajectory_02/rank_01/lead_0314

$$$$
