confid_10
     RDKit          3D

 29 32  0  0  0  0  0  0  0  0999 V2000
   24.4800   26.1000   36.1300 N   0  0  0  0  0  0  0  0  0  0  0  0
   25.2500   26.2500   34.9900 C   0  0  0  0  0  0  0  0  0  0  0  0
   24.7400   25.7600   33.9900 O   0  0  0  0  0  0  0  0  0  0  0  0
   26.5900   26.8900   34.9600 C   0  0  0  0  0  0  0  0  0  0  0  0
   27.0600   27.2400   36.1600 N   0  0  0  0  0  0  0  0  0  0  0  0
   28.3000   27.7100   36.2400 N   0  0  0  0  0  0  0  0  0  0  0  0
   29.0500   27.9600   35.1500 C   0  0  0  0  0  0  0  0  0  0  0  0
   30.3400   28.4900   35.2600 C   0  0  0  0  0  0  0  0  0  0  0  0
   31.1100   28.8200   34.1400 C   0  0  0  0  0  0  0  0  0  0  0  0
   30.5200   28.6700   32.8800 C   0  0  0  0  0  0  0  0  0  0  0  0
   29.2900   28.0200   32.7700 C   0  0  0  0  0  0  0  0  0  0  0  0
   28.5200   27.7100   33.8900 C   0  0  0  0  0  0  0  0  0  0  0  0
   27.2700   27.0800   33.7600 C   0  0  0  0  0  0  0  0  0  0  0  0
   26.7500   26.8800   32.4900 N   0  0  0  0  0  0  0  0  0  0  0  0
   23.0454   26.0119   36.1543 C   0  0  0  0  0  0  0  0  0  0  0  0
   22.4953   25.1827   36.9910 N   0  0  0  0  0  0  0  0  0  0  0  0
   21.0839   25.0240   37.1496 C   0  0  0  0  0  0  0  0  0  0  0  0
   20.3176   26.0682   37.4569 C   0  0  0  0  0  0  0  0  0  0  0  0
   20.8761   27.3901   37.8345 C   0  0  0  0  0  0  0  0  0  0  0  0
   21.2180   28.3112   36.8827 C   0  0  0  0  0  0  0  0  0  0  0  0
   21.0689   29.6938   37.1682 C   0  0  0  0  0  0  0  0  0  0  0  0
   21.0143   30.6383   36.1446 C   0  0  0  0  0  0  0  0  0  0  0  0
   21.1159   30.2366   34.8191 C   0  0  0  0  0  0  0  0  0  0  0  0
   21.4028   28.9077   34.5144 C   0  0  0  0  0  0  0  0  0  0  0  0
   21.5778   27.9516   35.5389 C   0  0  0  0  0  0  0  0  0  0  0  0
   22.2296   26.8122   35.2026 C   0  0  0  0  0  0  0  0  0  0  0  0
   20.6509   27.7668   39.2799 C   0  0  0  0  0  0  0  0  0  0  0  0
   20.4952   23.7618   37.0160 O   0  0  0  0  0  0  0  0  0  0  0  0
   21.2520   22.5939   36.7149 C   0  0  0  0  0  0  0  0  0  0  0  0
  1  2  1  0
  2  3  2  0
  2  4  1  0
  4  5  2  0
  5  6  1  0
  6  7  2  0
  7  8  1  0
  8  9  2  0
  9 10  1  0
 10 11  2  0
 11 12  1  0
 12 13  2  0
 13 14  1  0
  1 15  1  0
 15 16  2  0
 16 17  1  0
 17 18  2  0
 18 19  1  0
 19 20  2  0
 20 21  1  0
 21 22  2  0
 22 23  1  0
 23 24  2  0
 24 25  1  0
 25 26  2  0
 19 27  1  0
 17 28  1  0
 28 29  1  0
 13  4  1  0
 26 15  1  0
 12  7  1  0
 25 20  1  0
M  END
>  <AAScore>  (1) 
2644.060484206097

>  <RootName>  (1) 
./4ZLY/04_DeltaGEst/trajectory_00/rank_00/lead_0286

$$$$
