confid_0
     RDKit          3D

 29 32  0  0  0  0  0  0  0  0999 V2000
   24.5500   26.3900   36.2500 N   0  0  0  0  0  0  0  0  0  0  0  0
   25.6000   26.1300   35.4000 C   0  0  0  0  0  0  0  0  0  0  0  0
   25.4300   25.4300   34.4200 O   0  0  0  0  0  0  0  0  0  0  0  0
   26.9800   26.6300   35.7100 C   0  0  0  0  0  0  0  0  0  0  0  0
   27.3200   26.8200   36.9800 N   0  0  0  0  0  0  0  0  0  0  0  0
   28.4700   27.4000   37.3100 N   0  0  0  0  0  0  0  0  0  0  0  0
   29.4000   27.6300   36.3700 C   0  0  0  0  0  0  0  0  0  0  0  0
   30.6600   28.0500   36.8000 C   0  0  0  0  0  0  0  0  0  0  0  0
   31.5700   28.3600   35.7800 C   0  0  0  0  0  0  0  0  0  0  0  0
   31.3700   28.1000   34.4300 C   0  0  0  0  0  0  0  0  0  0  0  0
   30.1200   27.5900   34.0500 C   0  0  0  0  0  0  0  0  0  0  0  0
   29.1500   27.3400   35.0300 C   0  0  0  0  0  0  0  0  0  0  0  0
   27.8800   26.8900   34.6600 C   0  0  0  0  0  0  0  0  0  0  0  0
   27.4800   26.6100   33.3700 N   0  0  0  0  0  0  0  0  0  0  0  0
   23.1523   26.0041   36.0016 C   0  0  0  0  0  0  0  0  0  0  0  0
   22.9873   24.4586   35.9345 C   0  0  0  0  0  0  0  0  0  0  0  0
   22.3486   23.9773   34.6264 C   0  0  0  0  0  0  0  0  0  0  0  0
   21.1554   24.7758   34.3257 N   0  0  0  0  0  0  0  0  0  0  0  0
   19.9355   24.1292   33.9348 C   0  0  0  0  0  0  0  0  0  0  0  0
   19.7705   23.5810   32.6440 C   0  0  0  0  0  0  0  0  0  0  0  0
   20.8652   23.6314   31.6130 C   0  0  0  0  0  0  0  0  0  0  0  0
   21.8112   22.6064   31.8484 O   0  0  0  0  0  0  0  0  0  0  0  0
   21.4658   21.4434   31.1285 C   0  0  0  0  0  0  0  0  0  0  0  0
   18.5941   22.9744   32.3206 N   0  0  0  0  0  0  0  0  0  0  0  0
   17.5594   22.8883   33.1975 C   0  0  0  0  0  0  0  0  0  0  0  0
   17.6804   23.4314   34.4766 C   0  0  0  0  0  0  0  0  0  0  0  0
   18.8729   24.0549   34.8435 C   0  0  0  0  0  0  0  0  0  0  0  0
   21.1849   26.2402   34.4249 C   0  0  0  0  0  0  0  0  0  0  0  0
   22.5895   26.7463   34.7702 C   0  0  0  0  0  0  0  0  0  0  0  0
  1  2  1  0
  2  3  2  0
  2  4  1  0
  4  5  2  0
  5  6  1  0
  6  7  2  0
  7  8  1  0
  8  9  2  0
  9 10  1  0
 10 11  2  0
 11 12  1  0
 12 13  2  0
 13 14  1  0
  1 15  1  0
 15 16  1  0
 16 17  1  0
 17 18  1  0
 18 19  1  0
 19 20  2  0
 20 21  1  0
 21 22  1  0
 22 23  1  0
 20 24  1  0
 24 25  2  0
 25 26  1  0
 26 27  2  0
 18 28  1  0
 28 29  1  0
 13  4  1  0
 29 15  1  0
 12  7  1  0
 27 19  1  0
M  END
>  <AAScore>  (1) 
1428.4502666098397

>  <RootName>  (1) 
./4ZLY/04_DeltaGEst/trajectory_01/rank_00/lead_0489

$$$$
