confid_1
     RDKit          3D

 27 30  0  0  0  0  0  0  0  0999 V2000
   24.2000   26.2400   35.6900 N   0  0  0  0  0  0  0  0  0  0  0  0
   24.8500   26.2800   34.4800 C   0  0  0  0  0  0  0  0  0  0  0  0
   24.3100   25.7400   33.5400 O   0  0  0  0  0  0  0  0  0  0  0  0
   26.1800   26.9700   34.4700 C   0  0  0  0  0  0  0  0  0  0  0  0
   26.6500   27.6000   35.5500 N   0  0  0  0  0  0  0  0  0  0  0  0
   27.7900   28.2700   35.6200 N   0  0  0  0  0  0  0  0  0  0  0  0
   28.5400   28.3000   34.5100 C   0  0  0  0  0  0  0  0  0  0  0  0
   29.7700   28.9400   34.5600 C   0  0  0  0  0  0  0  0  0  0  0  0
   30.7000   28.8900   33.5000 C   0  0  0  0  0  0  0  0  0  0  0  0
   30.3700   28.1400   32.3700 C   0  0  0  0  0  0  0  0  0  0  0  0
   29.1200   27.5200   32.2800 C   0  0  0  0  0  0  0  0  0  0  0  0
   28.2100   27.6100   33.3300 C   0  0  0  0  0  0  0  0  0  0  0  0
   26.9700   26.9700   33.3100 C   0  0  0  0  0  0  0  0  0  0  0  0
   26.5300   26.2400   32.2200 N   0  0  0  0  0  0  0  0  0  0  0  0
   22.7726   26.1046   35.8371 C   0  0  0  0  0  0  0  0  0  0  0  0
   21.9423   26.2523   34.7530 N   0  0  0  0  0  0  0  0  0  0  0  0
   20.5846   26.1510   34.8511 C   0  0  0  0  0  0  0  0  0  0  0  0
   20.0289   25.8946   36.0983 C   0  0  0  0  0  0  0  0  0  0  0  0
   18.6820   25.7567   36.4128 O   0  0  0  0  0  0  0  0  0  0  0  0
   18.5242   25.4990   37.8159 C   0  0  0  0  0  0  0  0  0  0  0  0
   17.8645   24.1327   38.0253 C   0  0  0  0  0  0  0  0  0  0  0  0
   17.7119   26.6233   38.4655 C   0  0  0  0  0  0  0  0  0  0  0  0
   19.9480   25.4979   38.3158 C   0  0  0  0  0  0  0  0  0  0  0  0
   20.3139   25.3102   39.5068 O   0  0  0  0  0  0  0  0  0  0  0  0
   20.8273   25.7496   37.1939 C   0  0  0  0  0  0  0  0  0  0  0  0
   22.2133   25.8505   37.1093 C   0  0  0  0  0  0  0  0  0  0  0  0
   22.9891   25.7030   38.2127 F   0  0  0  0  0  0  0  0  0  0  0  0
  1  2  1  0
  2  3  2  0
  2  4  1  0
  4  5  2  0
  5  6  1  0
  6  7  2  0
  7  8  1  0
  8  9  2  0
  9 10  1  0
 10 11  2  0
 11 12  1  0
 12 13  2  0
 13 14  1  0
  1 15  1  0
 15 16  2  0
 16 17  1  0
 17 18  2  0
 18 19  1  0
 19 20  1  0
 20 21  1  0
 20 22  1  0
 20 23  1  0
 23 24  2  0
 23 25  1  0
 25 26  2  0
 26 27  1  0
 13  4  1  0
 26 15  1  0
 12  7  1  0
 25 18  1  0
M  END
>  <AAScore>  (1) 
2630.085179787507

>  <RootName>  (1) 
./4ZLY/04_DeltaGEst/trajectory_04/rank_00/lead_0292

$$$$
