confid_8
     RDKit          3D

 28 31  0  0  0  0  0  0  0  0999 V2000
   24.4800   26.1000   36.1300 N   0  0  0  0  0  0  0  0  0  0  0  0
   25.2500   26.2500   34.9900 C   0  0  0  0  0  0  0  0  0  0  0  0
   24.7400   25.7600   33.9900 O   0  0  0  0  0  0  0  0  0  0  0  0
   26.5900   26.8900   34.9600 C   0  0  0  0  0  0  0  0  0  0  0  0
   27.0600   27.2400   36.1600 N   0  0  0  0  0  0  0  0  0  0  0  0
   28.3000   27.7100   36.2400 N   0  0  0  0  0  0  0  0  0  0  0  0
   29.0500   27.9600   35.1500 C   0  0  0  0  0  0  0  0  0  0  0  0
   30.3400   28.4900   35.2600 C   0  0  0  0  0  0  0  0  0  0  0  0
   31.1100   28.8200   34.1400 C   0  0  0  0  0  0  0  0  0  0  0  0
   30.5200   28.6700   32.8800 C   0  0  0  0  0  0  0  0  0  0  0  0
   29.2900   28.0200   32.7700 C   0  0  0  0  0  0  0  0  0  0  0  0
   28.5200   27.7100   33.8900 C   0  0  0  0  0  0  0  0  0  0  0  0
   27.2700   27.0800   33.7600 C   0  0  0  0  0  0  0  0  0  0  0  0
   26.7500   26.8800   32.4900 N   0  0  0  0  0  0  0  0  0  0  0  0
   23.5375   25.0379   36.3652 C   0  0  0  0  0  0  0  0  0  0  0  0
   22.4771   25.2678   37.1827 N   0  0  0  0  0  0  0  0  0  0  0  0
   21.5640   24.3057   37.4718 C   0  0  0  0  0  0  0  0  0  0  0  0
   21.6892   23.0156   36.9311 C   0  0  0  0  0  0  0  0  0  0  0  0
   20.6686   21.9551   37.3002 C   0  0  0  0  0  0  0  0  0  0  0  0
   19.5344   21.8660   36.3561 N   0  0  0  0  0  0  0  0  0  0  0  0
   18.8879   23.1491   36.0349 C   0  0  0  0  0  0  0  0  0  0  0  0
   19.7497   20.9898   35.1867 C   0  0  0  0  0  0  0  0  0  0  0  0
   20.8893   21.4353   34.2542 C   0  0  0  0  0  0  0  0  0  0  0  0
   22.1656   20.8616   34.6784 N   0  0  0  0  0  0  0  0  0  0  0  0
   23.0114   21.3985   35.5086 C   0  0  0  0  0  0  0  0  0  0  0  0
   22.7906   22.7418   36.0922 C   0  0  0  0  0  0  0  0  0  0  0  0
   23.7226   23.7556   35.8260 C   0  0  0  0  0  0  0  0  0  0  0  0
   24.3078   20.6937   35.7615 C   0  0  0  0  0  0  0  0  0  0  0  0
  1  2  1  0
  2  3  2  0
  2  4  1  0
  4  5  2  0
  5  6  1  0
  6  7  2  0
  7  8  1  0
  8  9  2  0
  9 10  1  0
 10 11  2  0
 11 12  1  0
 12 13  2  0
 13 14  1  0
  1 15  1  0
 15 16  2  0
 16 17  1  0
 17 18  2  0
 18 19  1  0
 19 20  1  0
 20 21  1  0
 20 22  1  0
 22 23  1  0
 23 24  1  0
 24 25  2  0
 25 26  1  0
 26 27  2  0
 25 28  1  0
 13  4  1  0
 27 15  1  0
 12  7  1  0
 26 18  1  0
M  END
>  <AAScore>  (1) 
2599.40183652177

>  <RootName>  (1) 
./4ZLY/04_DeltaGEst/trajectory_00/rank_01/lead_0262

$$$$
