confid_10
     RDKit          3D

 28 30  0  0  0  0  0  0  0  0999 V2000
   24.4800   26.1000   36.1300 N   0  0  0  0  0  0  0  0  0  0  0  0
   25.2500   26.2500   34.9900 C   0  0  0  0  0  0  0  0  0  0  0  0
   24.7400   25.7600   33.9900 O   0  0  0  0  0  0  0  0  0  0  0  0
   26.5900   26.8900   34.9600 C   0  0  0  0  0  0  0  0  0  0  0  0
   27.0600   27.2400   36.1600 N   0  0  0  0  0  0  0  0  0  0  0  0
   28.3000   27.7100   36.2400 N   0  0  0  0  0  0  0  0  0  0  0  0
   29.0500   27.9600   35.1500 C   0  0  0  0  0  0  0  0  0  0  0  0
   30.3400   28.4900   35.2600 C   0  0  0  0  0  0  0  0  0  0  0  0
   31.1100   28.8200   34.1400 C   0  0  0  0  0  0  0  0  0  0  0  0
   30.5200   28.6700   32.8800 C   0  0  0  0  0  0  0  0  0  0  0  0
   29.2900   28.0200   32.7700 C   0  0  0  0  0  0  0  0  0  0  0  0
   28.5200   27.7100   33.8900 C   0  0  0  0  0  0  0  0  0  0  0  0
   27.2700   27.0800   33.7600 C   0  0  0  0  0  0  0  0  0  0  0  0
   26.7500   26.8800   32.4900 N   0  0  0  0  0  0  0  0  0  0  0  0
   23.0384   26.0651   36.1513 C   0  0  0  0  0  0  0  0  0  0  0  0
   22.2768   26.7629   35.1937 C   0  0  0  0  0  0  0  0  0  0  0  0
   20.8761   26.7389   35.2428 C   0  0  0  0  0  0  0  0  0  0  0  0
   19.9273   27.5759   34.0176 S   0  0  0  0  0  6  0  0  0  0  0  0
   18.7112   28.1748   34.6685 O   0  0  0  0  0  0  0  0  0  0  0  0
   20.7473   28.6869   33.4200 O   0  0  0  0  0  0  0  0  0  0  0  0
   19.4539   26.4268   32.7884 N   0  0  0  0  0  0  0  0  0  0  0  0
   20.6090   26.0260   31.9741 C   0  0  0  0  0  0  0  0  0  0  0  0
   18.3022   26.8863   31.9839 C   0  0  0  0  0  0  0  0  0  0  0  0
   18.5759   28.1309   31.1280 C   0  0  0  0  0  0  0  0  0  0  0  0
   20.2305   26.0195   36.2551 C   0  0  0  0  0  0  0  0  0  0  0  0
   20.9780   25.3443   37.2221 C   0  0  0  0  0  0  0  0  0  0  0  0
   22.3749   25.3704   37.1774 C   0  0  0  0  0  0  0  0  0  0  0  0
   23.0818   24.7027   38.1237 F   0  0  0  0  0  0  0  0  0  0  0  0
  1  2  1  0
  2  3  2  0
  2  4  1  0
  4  5  2  0
  5  6  1  0
  6  7  2  0
  7  8  1  0
  8  9  2  0
  9 10  1  0
 10 11  2  0
 11 12  1  0
 12 13  2  0
 13 14  1  0
  1 15  1  0
 15 16  2  0
 16 17  1  0
 17 18  1  0
 18 19  2  0
 18 20  2  0
 18 21  1  0
 21 22  1  0
 21 23  1  0
 23 24  1  0
 17 25  2  0
 25 26  1  0
 26 27  2  0
 27 28  1  0
 13  4  1  0
 27 15  1  0
 12  7  1  0
M  END
>  <AAScore>  (1) 
1582.4951755891611

>  <RootName>  (1) 
./4ZLY/04_DeltaGEst/trajectory_00/rank_00/lead_0304

$$$$
