confid_4
     RDKit          3D

 27 31  0  0  0  0  0  0  0  0999 V2000
   24.2000   26.2400   35.6900 N   0  0  0  0  0  0  0  0  0  0  0  0
   24.8500   26.2800   34.4800 C   0  0  0  0  0  0  0  0  0  0  0  0
   24.3100   25.7400   33.5400 O   0  0  0  0  0  0  0  0  0  0  0  0
   26.1800   26.9700   34.4700 C   0  0  0  0  0  0  0  0  0  0  0  0
   26.6500   27.6000   35.5500 N   0  0  0  0  0  0  0  0  0  0  0  0
   27.7900   28.2700   35.6200 N   0  0  0  0  0  0  0  0  0  0  0  0
   28.5400   28.3000   34.5100 C   0  0  0  0  0  0  0  0  0  0  0  0
   29.7700   28.9400   34.5600 C   0  0  0  0  0  0  0  0  0  0  0  0
   30.7000   28.8900   33.5000 C   0  0  0  0  0  0  0  0  0  0  0  0
   30.3700   28.1400   32.3700 C   0  0  0  0  0  0  0  0  0  0  0  0
   29.1200   27.5200   32.2800 C   0  0  0  0  0  0  0  0  0  0  0  0
   28.2100   27.6100   33.3300 C   0  0  0  0  0  0  0  0  0  0  0  0
   26.9700   26.9700   33.3100 C   0  0  0  0  0  0  0  0  0  0  0  0
   26.5300   26.2400   32.2200 N   0  0  0  0  0  0  0  0  0  0  0  0
   30.1383   29.6802   35.7363 N   0  0  0  0  0  0  0  0  0  0  0  0
   31.1858   29.1601   36.6275 C   0  0  0  0  0  0  0  0  0  0  0  0
   31.7685   30.2844   37.5057 C   0  0  0  0  0  0  0  0  0  0  0  0
   30.6695   31.0498   38.2621 C   0  0  0  0  0  0  0  0  0  0  0  0
   29.5871   31.4420   37.3058 C   0  0  0  0  0  0  0  0  0  0  0  0
   29.3650   30.7762   36.1653 N   0  0  0  0  0  0  0  0  0  0  0  0
   28.3683   31.3236   35.4877 N   0  0  0  0  0  0  0  0  0  0  0  0
   27.9249   32.3649   36.2255 C   0  0  0  0  0  0  0  0  0  0  0  0
   28.6528   32.4533   37.4092 C   0  0  0  0  0  0  0  0  0  0  0  0
   28.5456   33.4978   38.4828 C   0  0  0  0  0  0  0  0  0  0  0  0
   27.1876   33.5751   39.1652 C   0  0  0  0  0  0  0  0  0  0  0  0
   28.3654   32.9521   39.8921 C   0  0  0  0  0  0  0  0  0  0  0  0
   26.7851   33.2394   35.8160 C   0  0  0  0  0  0  0  0  0  0  0  0
  1  2  1  0
  2  3  2  0
  2  4  1  0
  4  5  2  0
  5  6  1  0
  6  7  2  0
  7  8  1  0
  8  9  2  0
  9 10  1  0
 10 11  2  0
 11 12  1  0
 12 13  2  0
 13 14  1  0
  8 15  1  0
 15 16  1  0
 16 17  1  0
 17 18  1  0
 18 19  1  0
 19 20  1  0
 20 21  1  0
 21 22  2  0
 22 23  1  0
 23 24  1  0
 24 25  1  0
 25 26  1  0
 22 27  1  0
 13  4  1  0
 20 15  1  0
 26 24  1  0
 12  7  1  0
 23 19  2  0
M  END
>  <AAScore>  (1) 
-4.851782579475379

>  <RootName>  (1) 
./4ZLY/04_DeltaGEst/trajectory_04/rank_01/lead_0408

$$$$
