confid_3
     RDKit          3D

 27 30  0  0  0  0  0  0  0  0999 V2000
   25.3300   26.2600   34.7600 N   0  0  0  0  0  0  0  0  0  0  0  0
   26.1200   25.9200   33.6900 C   0  0  0  0  0  0  0  0  0  0  0  0
   25.6300   25.1100   32.9400 O   0  0  0  0  0  0  0  0  0  0  0  0
   27.5200   26.3800   33.4600 C   0  0  0  0  0  0  0  0  0  0  0  0
   28.1600   26.6300   34.6100 N   0  0  0  0  0  0  0  0  0  0  0  0
   29.4800   26.8500   34.5700 N   0  0  0  0  0  0  0  0  0  0  0  0
   30.1900   26.7800   33.4400 C   0  0  0  0  0  0  0  0  0  0  0  0
   31.5600   27.0500   33.5000 C   0  0  0  0  0  0  0  0  0  0  0  0
   32.2700   27.2400   32.3100 C   0  0  0  0  0  0  0  0  0  0  0  0
   31.6100   27.2500   31.0800 C   0  0  0  0  0  0  0  0  0  0  0  0
   30.2700   26.8700   31.0600 C   0  0  0  0  0  0  0  0  0  0  0  0
   29.5100   26.6900   32.2300 C   0  0  0  0  0  0  0  0  0  0  0  0
   28.1400   26.4100   32.2000 C   0  0  0  0  0  0  0  0  0  0  0  0
   27.4300   26.1300   31.0500 N   0  0  0  0  0  0  0  0  0  0  0  0
   24.1878   25.5087   35.2239 C   0  0  0  0  0  0  0  0  0  0  0  0
   24.1024   24.1695   34.9514 N   0  0  0  0  0  0  0  0  0  0  0  0
   23.0666   23.4002   35.3809 C   0  0  0  0  0  0  0  0  0  0  0  0
   22.0799   23.9851   36.1631 C   0  0  0  0  0  0  0  0  0  0  0  0
   20.8465   23.3521   36.6956 C   0  0  0  0  0  0  0  0  0  0  0  0
   20.1292   24.5231   37.4012 C   0  0  0  0  0  0  0  0  0  0  0  0
   21.0386   25.6698   37.3260 N   0  0  0  0  0  0  0  0  0  0  0  0
   21.0337   26.6710   38.3552 C   0  0  0  0  0  0  0  0  0  0  0  0
   19.9726   27.3068   38.5927 O   0  0  0  0  0  0  0  0  0  0  0  0
   22.2318   26.9093   39.2210 C   0  0  0  0  0  0  0  0  0  0  0  0
   22.1513   25.3043   36.5119 C   0  0  0  0  0  0  0  0  0  0  0  0
   23.1668   26.1353   35.9898 C   0  0  0  0  0  0  0  0  0  0  0  0
   23.1442   27.6312   36.1661 C   0  0  0  0  0  0  0  0  0  0  0  0
  1  2  1  0
  2  3  2  0
  2  4  1  0
  4  5  2  0
  5  6  1  0
  6  7  2  0
  7  8  1  0
  8  9  2  0
  9 10  1  0
 10 11  2  0
 11 12  1  0
 12 13  2  0
 13 14  1  0
  1 15  1  0
 15 16  2  0
 16 17  1  0
 17 18  2  0
 18 19  1  0
 19 20  1  0
 20 21  1  0
 21 22  1  0
 22 23  2  0
 22 24  1  0
 21 25  1  0
 25 26  2  0
 26 27  1  0
 13  4  1  0
 26 15  1  0
 12  7  1  0
 25 18  1  0
M  END
>  <AAScore>  (1) 
6708.551082702709

>  <RootName>  (1) 
./4ZLY/04_DeltaGEst/trajectory_03/rank_00/lead_0109

$$$$
