confid_4
     RDKit          3D

 28 31  0  0  0  0  0  0  0  0999 V2000
   24.5700   26.8800   35.5900 N   0  0  0  0  0  0  0  0  0  0  0  0
   25.5000   26.4000   34.6900 C   0  0  0  0  0  0  0  0  0  0  0  0
   25.1700   25.5200   33.9100 O   0  0  0  0  0  0  0  0  0  0  0  0
   26.8400   27.0200   34.7400 C   0  0  0  0  0  0  0  0  0  0  0  0
   27.3800   27.2800   35.9400 N   0  0  0  0  0  0  0  0  0  0  0  0
   28.6200   27.7400   36.0300 N   0  0  0  0  0  0  0  0  0  0  0  0
   29.3800   28.0000   34.9600 C   0  0  0  0  0  0  0  0  0  0  0  0
   30.6700   28.5000   35.1300 C   0  0  0  0  0  0  0  0  0  0  0  0
   31.5400   28.6100   34.0300 C   0  0  0  0  0  0  0  0  0  0  0  0
   31.0900   28.2200   32.7700 C   0  0  0  0  0  0  0  0  0  0  0  0
   29.8000   27.7000   32.6000 C   0  0  0  0  0  0  0  0  0  0  0  0
   28.9600   27.5500   33.7100 C   0  0  0  0  0  0  0  0  0  0  0  0
   27.6600   27.0300   33.5900 C   0  0  0  0  0  0  0  0  0  0  0  0
   27.1600   26.7400   32.3400 N   0  0  0  0  0  0  0  0  0  0  0  0
   23.1595   26.6534   35.4544 C   0  0  0  0  0  0  0  0  0  0  0  0
   22.4017   26.2438   36.4907 N   0  0  0  0  0  0  0  0  0  0  0  0
   21.1446   26.2250   36.0115 C   0  0  0  0  0  0  0  0  0  0  0  0
   21.1290   26.6478   34.6968 C   0  0  0  0  0  0  0  0  0  0  0  0
   19.8102   26.6313   33.8423 C   0  0  0  0  0  0  0  0  0  0  0  0
   19.3604   27.9266   33.3789 O   0  0  0  0  0  0  0  0  0  0  0  0
   19.1403   28.0429   31.9468 C   0  0  1  0  0  0  0  0  0  0  0  0
   17.6722   28.4079   31.7327 C   0  0  0  0  0  0  0  0  0  0  0  0
   20.0728   29.1613   31.2436 C   0  0  0  0  0  0  0  0  0  0  0  0
   21.5733   28.9462   31.2628 N   0  0  0  0  0  0  0  0  0  0  0  0
   22.0340   28.2832   30.0317 C   0  0  0  0  0  0  0  0  0  0  0  0
   21.7962   28.1139   32.4233 C   0  0  0  0  0  0  0  0  0  0  0  0
   23.0002   27.6221   33.1257 C   0  0  0  0  0  0  0  0  0  0  0  0
   22.4470   26.9258   34.3344 N   0  0  0  0  0  0  0  0  0  0  0  0
  1  2  1  0
  2  3  2  0
  2  4  1  0
  4  5  2  0
  5  6  1  0
  6  7  2  0
  7  8  1  0
  8  9  2  0
  9 10  1  0
 10 11  2  0
 11 12  1  0
 12 13  2  0
 13 14  1  0
  1 15  1  0
 15 16  2  0
 16 17  1  0
 17 18  2  0
 18 19  1  0
 19 20  1  0
 20 21  1  0
 21 22  1  1
 21 23  1  0
 23 24  1  0
 24 25  1  0
 24 26  1  0
 26 27  1  0
 27 28  1  0
 13  4  1  0
 28 15  1  0
 12  7  1  0
 28 18  1  0
M  END
>  <AAScore>  (1) 
2620.795575945976

>  <RootName>  (1) 
./4ZLY/04_DeltaGEst/trajectory_05/rank_00/lead_0098

$$$$
