confid_8
     RDKit          3D

 28 32  0  0  0  0  0  0  0  0999 V2000
   24.5500   26.3900   36.2500 N   0  0  0  0  0  0  0  0  0  0  0  0
   25.6000   26.1300   35.4000 C   0  0  0  0  0  0  0  0  0  0  0  0
   25.4300   25.4300   34.4200 O   0  0  0  0  0  0  0  0  0  0  0  0
   26.9800   26.6300   35.7100 C   0  0  0  0  0  0  0  0  0  0  0  0
   27.3200   26.8200   36.9800 N   0  0  0  0  0  0  0  0  0  0  0  0
   28.4700   27.4000   37.3100 N   0  0  0  0  0  0  0  0  0  0  0  0
   29.4000   27.6300   36.3700 C   0  0  0  0  0  0  0  0  0  0  0  0
   30.6600   28.0500   36.8000 C   0  0  0  0  0  0  0  0  0  0  0  0
   31.5700   28.3600   35.7800 C   0  0  0  0  0  0  0  0  0  0  0  0
   31.3700   28.1000   34.4300 C   0  0  0  0  0  0  0  0  0  0  0  0
   30.1200   27.5900   34.0500 C   0  0  0  0  0  0  0  0  0  0  0  0
   29.1500   27.3400   35.0300 C   0  0  0  0  0  0  0  0  0  0  0  0
   27.8800   26.8900   34.6600 C   0  0  0  0  0  0  0  0  0  0  0  0
   27.4800   26.6100   33.3700 N   0  0  0  0  0  0  0  0  0  0  0  0
   23.2082   25.8951   36.0928 C   0  0  0  0  0  0  0  0  0  0  0  0
   22.8733   25.0772   35.0578 N   0  0  0  0  0  0  0  0  0  0  0  0
   21.6062   24.6144   34.9072 C   0  0  0  0  0  0  0  0  0  0  0  0
   20.6135   24.9792   35.8213 C   0  0  0  0  0  0  0  0  0  0  0  0
   19.2226   24.4187   35.6929 C   0  0  0  0  0  0  0  0  0  0  0  0
   18.2222   25.1005   36.6436 C   0  0  0  0  0  0  0  0  0  0  0  0
   18.7904   25.3694   37.9837 N   0  0  0  0  0  0  0  0  0  0  0  0
   19.9498   26.2802   37.8870 C   0  0  0  0  0  0  0  0  0  0  0  0
   20.9784   25.8027   36.8974 C   0  0  0  0  0  0  0  0  0  0  0  0
   22.2574   26.2521   36.9968 N   0  0  0  0  0  0  0  0  0  0  0  0
   19.1072   24.1452   38.7517 C   0  0  0  0  0  0  0  0  0  0  0  0
   17.8191   23.4257   39.1763 C   0  0  0  0  0  0  0  0  0  0  0  0
   18.0485   22.0668   39.8213 C   0  0  0  0  0  0  0  0  0  0  0  0
   17.4727   22.1524   38.4176 C   0  0  0  0  0  0  0  0  0  0  0  0
  1  2  1  0
  2  3  2  0
  2  4  1  0
  4  5  2  0
  5  6  1  0
  6  7  2  0
  7  8  1  0
  8  9  2  0
  9 10  1  0
 10 11  2  0
 11 12  1  0
 12 13  2  0
 13 14  1  0
  1 15  1  0
 15 16  2  0
 16 17  1  0
 17 18  2  0
 18 19  1  0
 19 20  1  0
 20 21  1  0
 21 22  1  0
 22 23  1  0
 23 24  2  0
 21 25  1  0
 25 26  1  0
 26 27  1  0
 27 28  1  0
 13  4  1  0
 24 15  1  0
 28 26  1  0
 12  7  1  0
 23 18  1  0
M  END
>  <AAScore>  (1) 
2817.041410323359

>  <RootName>  (1) 
./4ZLY/04_DeltaGEst/trajectory_01/rank_00/lead_0369

$$$$
