confid_11
     RDKit          3D

 27 30  0  0  0  0  0  0  0  0999 V2000
   24.6900   26.1200   35.5300 N   0  0  0  0  0  0  0  0  0  0  0  0
   25.6600   25.6700   34.6600 C   0  0  0  0  0  0  0  0  0  0  0  0
   25.2400   25.0100   33.7200 O   0  0  0  0  0  0  0  0  0  0  0  0
   27.0300   26.2200   34.8800 C   0  0  0  0  0  0  0  0  0  0  0  0
   27.3500   26.7300   36.0700 N   0  0  0  0  0  0  0  0  0  0  0  0
   28.5700   27.1800   36.3300 N   0  0  0  0  0  0  0  0  0  0  0  0
   29.5300   27.1100   35.3900 C   0  0  0  0  0  0  0  0  0  0  0  0
   30.8300   27.5700   35.6500 C   0  0  0  0  0  0  0  0  0  0  0  0
   31.8500   27.5400   34.6900 C   0  0  0  0  0  0  0  0  0  0  0  0
   31.5100   27.1200   33.4000 C   0  0  0  0  0  0  0  0  0  0  0  0
   30.2200   26.6300   33.1100 C   0  0  0  0  0  0  0  0  0  0  0  0
   29.2400   26.6600   34.1000 C   0  0  0  0  0  0  0  0  0  0  0  0
   27.9300   26.2600   33.8100 C   0  0  0  0  0  0  0  0  0  0  0  0
   27.5200   25.7100   32.6100 N   0  0  0  0  0  0  0  0  0  0  0  0
   23.2796   26.1521   35.2370 C   0  0  0  0  0  0  0  0  0  0  0  0
   22.3948   25.8819   36.2273 N   0  0  0  0  0  0  0  0  0  0  0  0
   21.0551   25.8813   36.0177 C   0  0  0  0  0  0  0  0  0  0  0  0
   20.5172   26.1650   34.7472 C   0  0  0  0  0  0  0  0  0  0  0  0
   19.0182   26.0011   34.5838 C   0  0  0  0  0  0  0  0  0  0  0  0
   18.4187   27.0884   33.8047 N   0  0  0  0  0  0  0  0  0  0  0  0
   17.5925   28.1106   34.4513 C   0  0  0  0  0  0  0  0  0  0  0  0
   18.5691   27.0927   32.3793 C   0  0  0  0  0  0  0  0  0  0  0  0
   17.7952   27.7787   31.6578 O   0  0  0  0  0  0  0  0  0  0  0  0
   19.6939   26.3377   31.7489 C   0  0  0  0  0  0  0  0  0  0  0  0
   21.0255   26.8772   32.2703 C   0  0  0  0  0  0  0  0  0  0  0  0
   21.4213   26.4623   33.6831 C   0  0  0  0  0  0  0  0  0  0  0  0
   22.8006   26.4885   33.9639 C   0  0  0  0  0  0  0  0  0  0  0  0
  1  2  1  0
  2  3  2  0
  2  4  1  0
  4  5  2  0
  5  6  1  0
  6  7  2  0
  7  8  1  0
  8  9  2  0
  9 10  1  0
 10 11  2  0
 11 12  1  0
 12 13  2  0
 13 14  1  0
  1 15  1  0
 15 16  2  0
 16 17  1  0
 17 18  2  0
 18 19  1  0
 19 20  1  0
 20 21  1  0
 20 22  1  0
 22 23  2  0
 22 24  1  0
 24 25  1  0
 25 26  1  0
 26 27  2  0
 13  4  1  0
 27 15  1  0
 12  7  1  0
 26 18  1  0
M  END
>  <AAScore>  (1) 
201.02872817749207

>  <RootName>  (1) 
./4ZLY/04_DeltaGEst/trajectory_02/rank_00/lead_0035

$$$$
