confid_16
     RDKit          3D

 27 30  0  0  0  0  0  0  0  0999 V2000
   24.4800   26.1000   36.1300 N   0  0  0  0  0  0  0  0  0  0  0  0
   25.2500   26.2500   34.9900 C   0  0  0  0  0  0  0  0  0  0  0  0
   24.7400   25.7600   33.9900 O   0  0  0  0  0  0  0  0  0  0  0  0
   26.5900   26.8900   34.9600 C   0  0  0  0  0  0  0  0  0  0  0  0
   27.0600   27.2400   36.1600 N   0  0  0  0  0  0  0  0  0  0  0  0
   28.3000   27.7100   36.2400 N   0  0  0  0  0  0  0  0  0  0  0  0
   29.0500   27.9600   35.1500 C   0  0  0  0  0  0  0  0  0  0  0  0
   30.3400   28.4900   35.2600 C   0  0  0  0  0  0  0  0  0  0  0  0
   31.1100   28.8200   34.1400 C   0  0  0  0  0  0  0  0  0  0  0  0
   30.5200   28.6700   32.8800 C   0  0  0  0  0  0  0  0  0  0  0  0
   29.2900   28.0200   32.7700 C   0  0  0  0  0  0  0  0  0  0  0  0
   28.5200   27.7100   33.8900 C   0  0  0  0  0  0  0  0  0  0  0  0
   27.2700   27.0800   33.7600 C   0  0  0  0  0  0  0  0  0  0  0  0
   26.7500   26.8800   32.4900 N   0  0  0  0  0  0  0  0  0  0  0  0
   23.0443   26.0264   36.1527 C   0  0  0  0  0  0  0  0  0  0  0  0
   22.1796   26.4117   35.1393 C   0  0  0  0  0  0  0  0  0  0  0  0
   20.9295   26.2037   35.6852 C   0  0  0  0  0  0  0  0  0  0  0  0
   19.6820   26.4602   35.0171 N   0  0  0  0  0  0  0  0  0  0  0  0
   19.4661   25.8856   33.6838 C   0  0  0  0  0  0  0  0  0  0  0  0
   18.1518   26.3772   33.0832 C   0  0  0  0  0  0  0  0  0  0  0  0
   18.0450   27.8245   33.3196 N   0  0  0  0  0  0  0  0  0  0  0  0
   16.9658   28.4023   32.5046 C   0  0  0  0  0  0  0  0  0  0  0  0
   17.8268   28.1219   34.7535 C   0  0  0  0  0  0  0  0  0  0  0  0
   18.6024   27.1807   35.7052 C   0  0  0  0  0  0  0  0  0  0  0  0
   21.0630   25.7162   36.9387 N   0  0  0  0  0  0  0  0  0  0  0  0
   22.3498   25.6192   37.2342 N   0  0  0  0  0  0  0  0  0  0  0  0
   20.0022   25.3126   37.8547 C   0  0  0  0  0  0  0  0  0  0  0  0
  1  2  1  0
  2  3  2  0
  2  4  1  0
  4  5  2  0
  5  6  1  0
  6  7  2  0
  7  8  1  0
  8  9  2  0
  9 10  1  0
 10 11  2  0
 11 12  1  0
 12 13  2  0
 13 14  1  0
  1 15  1  0
 15 16  1  0
 16 17  2  0
 17 18  1  0
 18 19  1  0
 19 20  1  0
 20 21  1  0
 21 22  1  0
 21 23  1  0
 23 24  1  0
 17 25  1  0
 25 26  1  0
 25 27  1  0
 13  4  1  0
 26 15  2  0
 12  7  1  0
 24 18  1  0
M  END
>  <AAScore>  (1) 
85.85176107521974

>  <RootName>  (1) 
./4ZLY/04_DeltaGEst/trajectory_00/rank_00/lead_0386

$$$$
