confid_5
     RDKit          3D

 27 30  0  0  0  0  0  0  0  0999 V2000
   24.4800   26.1000   36.1300 N   0  0  0  0  0  0  0  0  0  0  0  0
   25.2500   26.2500   34.9900 C   0  0  0  0  0  0  0  0  0  0  0  0
   24.7400   25.7600   33.9900 O   0  0  0  0  0  0  0  0  0  0  0  0
   26.5900   26.8900   34.9600 C   0  0  0  0  0  0  0  0  0  0  0  0
   27.0600   27.2400   36.1600 N   0  0  0  0  0  0  0  0  0  0  0  0
   28.3000   27.7100   36.2400 N   0  0  0  0  0  0  0  0  0  0  0  0
   29.0500   27.9600   35.1500 C   0  0  0  0  0  0  0  0  0  0  0  0
   30.3400   28.4900   35.2600 C   0  0  0  0  0  0  0  0  0  0  0  0
   31.1100   28.8200   34.1400 C   0  0  0  0  0  0  0  0  0  0  0  0
   30.5200   28.6700   32.8800 C   0  0  0  0  0  0  0  0  0  0  0  0
   29.2900   28.0200   32.7700 C   0  0  0  0  0  0  0  0  0  0  0  0
   28.5200   27.7100   33.8900 C   0  0  0  0  0  0  0  0  0  0  0  0
   27.2700   27.0800   33.7600 C   0  0  0  0  0  0  0  0  0  0  0  0
   26.7500   26.8800   32.4900 N   0  0  0  0  0  0  0  0  0  0  0  0
   23.0698   25.8149   36.1485 C   0  0  0  0  0  0  0  0  0  0  0  0
   22.2771   25.7756   35.0558 N   0  0  0  0  0  0  0  0  0  0  0  0
   21.0546   25.5058   35.5629 C   0  0  0  0  0  0  0  0  0  0  0  0
   19.8307   25.3311   34.7117 C   0  0  0  0  0  0  0  0  0  0  0  0
   19.2364   23.9862   34.8540 N   0  0  0  0  0  0  0  0  0  0  0  0
   18.4483   23.8122   36.0991 C   0  0  0  0  0  0  0  0  0  0  0  0
   19.2716   23.7589   37.4037 C   0  0  0  0  0  0  0  0  0  0  0  0
   19.9167   25.0996   37.7690 C   0  0  0  0  0  0  0  0  0  0  0  0
   21.0596   25.3784   36.9048 N   0  0  0  0  0  0  0  0  0  0  0  0
   22.3313   25.5794   37.2869 C   0  0  0  0  0  0  0  0  0  0  0  0
   20.1829   22.8931   34.5278 C   0  0  0  0  0  0  0  0  0  0  0  0
   19.4668   21.5821   34.1700 C   0  0  0  0  0  0  0  0  0  0  0  0
   18.4752   21.7602   33.0217 C   0  0  0  0  0  0  0  0  0  0  0  0
  1  2  1  0
  2  3  2  0
  2  4  1  0
  4  5  2  0
  5  6  1  0
  6  7  2  0
  7  8  1  0
  8  9  2  0
  9 10  1  0
 10 11  2  0
 11 12  1  0
 12 13  2  0
 13 14  1  0
  1 15  1  0
 15 16  1  0
 16 17  2  0
 17 18  1  0
 18 19  1  0
 19 20  1  0
 20 21  1  0
 21 22  1  0
 22 23  1  0
 23 24  1  0
 19 25  1  0
 25 26  1  0
 26 27  1  0
 13  4  1  0
 24 15  2  0
 12  7  1  0
 23 17  1  0
M  END
>  <AAScore>  (1) 
1090.2408214902125

>  <RootName>  (1) 
./4ZLY/04_DeltaGEst/trajectory_00/rank_01/lead_0410

$$$$
