confid_4
     RDKit          3D

 32 35  0  0  0  0  0  0  0  0999 V2000
   24.2000   26.2400   35.6900 N   0  0  0  0  0  0  0  0  0  0  0  0
   24.8500   26.2800   34.4800 C   0  0  0  0  0  0  0  0  0  0  0  0
   24.3100   25.7400   33.5400 O   0  0  0  0  0  0  0  0  0  0  0  0
   26.1800   26.9700   34.4700 C   0  0  0  0  0  0  0  0  0  0  0  0
   26.6500   27.6000   35.5500 N   0  0  0  0  0  0  0  0  0  0  0  0
   27.7900   28.2700   35.6200 N   0  0  0  0  0  0  0  0  0  0  0  0
   28.5400   28.3000   34.5100 C   0  0  0  0  0  0  0  0  0  0  0  0
   29.7700   28.9400   34.5600 C   0  0  0  0  0  0  0  0  0  0  0  0
   30.7000   28.8900   33.5000 C   0  0  0  0  0  0  0  0  0  0  0  0
   30.3700   28.1400   32.3700 C   0  0  0  0  0  0  0  0  0  0  0  0
   29.1200   27.5200   32.2800 C   0  0  0  0  0  0  0  0  0  0  0  0
   28.2100   27.6100   33.3300 C   0  0  0  0  0  0  0  0  0  0  0  0
   26.9700   26.9700   33.3100 C   0  0  0  0  0  0  0  0  0  0  0  0
   26.5300   26.2400   32.2200 N   0  0  0  0  0  0  0  0  0  0  0  0
   23.1756   25.2958   36.0713 C   0  0  0  0  0  0  0  0  0  0  0  0
   22.6363   24.5139   35.1739 N   0  0  0  0  0  0  0  0  0  0  0  0
   21.6470   23.5047   35.4121 C   0  0  0  0  0  0  0  0  0  0  0  0
   20.7314   23.1599   34.4886 C   0  0  0  0  0  0  0  0  0  0  0  0
   19.8060   22.0018   34.7828 C   0  0  0  0  0  0  0  0  0  0  0  0
   19.4025   21.2919   33.5583 N   0  0  0  0  0  0  0  0  0  0  0  0
   19.9936   21.6779   32.2682 C   0  0  0  0  0  0  0  0  0  0  0  0
   19.9316   23.1969   32.1064 C   0  0  0  0  0  0  0  0  0  0  0  0
   20.5342   23.8916   33.2531 N   0  0  0  0  0  0  0  0  0  0  0  0
   20.6011   25.3631   33.1838 C   0  0  0  0  0  0  0  0  0  0  0  0
   19.6622   26.0354   34.2069 C   0  0  0  0  0  0  0  0  0  0  0  0
   20.5954   27.2041   35.2655 S   0  0  0  0  0  0  0  0  0  0  0  0
   20.3827   26.3486   36.8740 C   0  0  0  0  0  0  0  0  0  0  0  0
   21.6538   26.4808   37.7282 C   0  0  0  0  0  0  0  0  0  0  0  0
   22.6717   25.3487   37.5010 C   0  0  0  0  0  0  0  0  0  0  0  0
   18.5042   20.1669   33.6795 C   0  0  0  0  0  0  0  0  0  0  0  0
   17.8585   19.9962   34.7492 O   0  0  0  0  0  0  0  0  0  0  0  0
   18.3010   19.1888   32.5617 C   0  0  0  0  0  0  0  0  0  0  0  0
  1  2  1  0
  2  3  2  0
  2  4  1  0
  4  5  2  0
  5  6  1  0
  6  7  2  0
  7  8  1  0
  8  9  2  0
  9 10  1  0
 10 11  2  0
 11 12  1  0
 12 13  2  0
 13 14  1  0
  1 15  1  0
 15 16  2  0
 16 17  1  0
 17 18  2  0
 18 19  1  0
 19 20  1  0
 20 21  1  0
 21 22  1  0
 22 23  1  0
 23 24  1  0
 24 25  1  0
 25 26  1  0
 26 27  1  0
 27 28  1  0
 28 29  1  0
 20 30  1  0
 30 31  2  0
 30 32  1  0
 13  4  1  0
 29 15  1  0
 12  7  1  0
 23 18  1  0
M  END
>  <AAScore>  (1) 
10447.26830984055

>  <RootName>  (1) 
./4ZLY/04_DeltaGEst/trajectory_04/rank_00/lead_0098

$$$$
