confid_16
     RDKit          3D

 29 33  0  0  0  0  0  0  0  0999 V2000
   24.5500   26.3900   36.2500 N   0  0  0  0  0  0  0  0  0  0  0  0
   25.6000   26.1300   35.4000 C   0  0  0  0  0  0  0  0  0  0  0  0
   25.4300   25.4300   34.4200 O   0  0  0  0  0  0  0  0  0  0  0  0
   26.9800   26.6300   35.7100 C   0  0  0  0  0  0  0  0  0  0  0  0
   27.3200   26.8200   36.9800 N   0  0  0  0  0  0  0  0  0  0  0  0
   28.4700   27.4000   37.3100 N   0  0  0  0  0  0  0  0  0  0  0  0
   29.4000   27.6300   36.3700 C   0  0  0  0  0  0  0  0  0  0  0  0
   30.6600   28.0500   36.8000 C   0  0  0  0  0  0  0  0  0  0  0  0
   31.5700   28.3600   35.7800 C   0  0  0  0  0  0  0  0  0  0  0  0
   31.3700   28.1000   34.4300 C   0  0  0  0  0  0  0  0  0  0  0  0
   30.1200   27.5900   34.0500 C   0  0  0  0  0  0  0  0  0  0  0  0
   29.1500   27.3400   35.0300 C   0  0  0  0  0  0  0  0  0  0  0  0
   27.8800   26.8900   34.6600 C   0  0  0  0  0  0  0  0  0  0  0  0
   27.4800   26.6100   33.3700 N   0  0  0  0  0  0  0  0  0  0  0  0
   30.9729   28.2989   38.1827 N   0  0  0  0  0  0  0  0  0  0  0  0
   30.9699   27.1719   39.1276 C   0  0  0  0  0  0  0  0  0  0  0  0
   32.3888   26.8391   39.6099 C   0  0  0  0  0  0  0  0  0  0  0  0
   32.6225   27.2075   41.0565 C   0  0  0  0  0  0  0  0  0  0  0  0
   33.2776   26.4156   41.9859 C   0  0  0  0  0  0  0  0  0  0  0  0
   33.3936   27.2005   43.1147 C   0  0  0  0  0  0  0  0  0  0  0  0
   32.8245   28.3973   42.8822 N   0  0  0  0  0  0  0  0  0  0  0  0
   32.3714   28.4089   41.6367 N   0  0  0  0  0  0  0  0  0  0  0  0
   31.6453   29.5601   41.0907 C   0  0  0  0  0  0  0  0  0  0  0  0
   32.1833   29.9903   39.7182 C   0  0  0  0  0  0  0  0  0  0  0  0
   31.2346   29.6559   38.5971 C   0  0  0  0  0  0  0  0  0  0  0  0
   30.6831   30.6062   37.9769 O   0  0  0  0  0  0  0  0  0  0  0  0
   33.8610   25.0468   41.7837 C   0  0  0  0  0  0  0  0  0  0  0  0
   33.6008   24.0584   42.9122 C   0  0  0  0  0  0  0  0  0  0  0  0
   32.8284   23.9425   41.6107 C   0  0  0  0  0  0  0  0  0  0  0  0
  1  2  1  0
  2  3  2  0
  2  4  1  0
  4  5  2  0
  5  6  1  0
  6  7  2  0
  7  8  1  0
  8  9  2  0
  9 10  1  0
 10 11  2  0
 11 12  1  0
 12 13  2  0
 13 14  1  0
  8 15  1  0
 15 16  1  0
 16 17  1  0
 17 18  1  0
 18 19  2  0
 19 20  1  0
 20 21  2  0
 21 22  1  0
 22 23  1  0
 23 24  1  0
 24 25  1  0
 25 26  2  0
 19 27  1  0
 27 28  1  0
 28 29  1  0
 13  4  1  0
 25 15  1  0
 29 27  1  0
 12  7  1  0
 22 18  1  0
M  END
>  <AAScore>  (1) 
405.5592937273106

>  <RootName>  (1) 
./4ZLY/04_DeltaGEst/trajectory_01/rank_01/lead_0147

$$$$
