confid_4
     RDKit          3D

 27 31  0  0  0  0  0  0  0  0999 V2000
   24.2000   26.2400   35.6900 N   0  0  0  0  0  0  0  0  0  0  0  0
   24.8500   26.2800   34.4800 C   0  0  0  0  0  0  0  0  0  0  0  0
   24.3100   25.7400   33.5400 O   0  0  0  0  0  0  0  0  0  0  0  0
   26.1800   26.9700   34.4700 C   0  0  0  0  0  0  0  0  0  0  0  0
   26.6500   27.6000   35.5500 N   0  0  0  0  0  0  0  0  0  0  0  0
   27.7900   28.2700   35.6200 N   0  0  0  0  0  0  0  0  0  0  0  0
   28.5400   28.3000   34.5100 C   0  0  0  0  0  0  0  0  0  0  0  0
   29.7700   28.9400   34.5600 C   0  0  0  0  0  0  0  0  0  0  0  0
   30.7000   28.8900   33.5000 C   0  0  0  0  0  0  0  0  0  0  0  0
   30.3700   28.1400   32.3700 C   0  0  0  0  0  0  0  0  0  0  0  0
   29.1200   27.5200   32.2800 C   0  0  0  0  0  0  0  0  0  0  0  0
   28.2100   27.6100   33.3300 C   0  0  0  0  0  0  0  0  0  0  0  0
   26.9700   26.9700   33.3100 C   0  0  0  0  0  0  0  0  0  0  0  0
   26.5300   26.2400   32.2200 N   0  0  0  0  0  0  0  0  0  0  0  0
   30.1349   29.6897   35.7326 N   0  0  0  0  0  0  0  0  0  0  0  0
   29.4217   30.9382   36.0430 C   0  0  0  0  0  0  0  0  0  0  0  0
   30.2448   31.8397   36.9760 C   0  0  0  0  0  0  0  0  0  0  0  0
   31.7334   31.8292   36.5666 C   0  0  0  0  0  0  0  0  0  0  0  0
   32.3601   30.4061   36.5365 C   0  0  0  0  0  0  0  0  0  0  0  0
   31.3030   29.2905   36.5266 C   0  0  0  0  0  0  0  0  0  0  0  0
   32.4805   32.6986   37.3560 O   0  0  0  0  0  0  0  0  0  0  0  0
   32.7326   33.4450   36.1572 C   0  0  0  0  0  0  0  0  0  0  0  0
   33.3782   34.5589   35.6569 C   0  0  0  0  0  0  0  0  0  0  0  0
   33.2286   34.7694   34.2627 C   0  0  0  0  0  0  0  0  0  0  0  0
   32.4584   33.8772   33.4497 C   0  0  0  0  0  0  0  0  0  0  0  0
   31.8110   32.7440   34.0027 C   0  0  0  0  0  0  0  0  0  0  0  0
   31.9798   32.5749   35.3629 C   0  0  0  0  0  0  0  0  0  0  0  0
  1  2  1  0
  2  3  2  0
  2  4  1  0
  4  5  2  0
  5  6  1  0
  6  7  2  0
  7  8  1  0
  8  9  2  0
  9 10  1  0
 10 11  2  0
 11 12  1  0
 12 13  2  0
 13 14  1  0
  8 15  1  0
 15 16  1  0
 16 17  1  0
 17 18  1  0
 18 19  1  0
 19 20  1  0
 18 21  1  0
 21 22  1  0
 22 23  2  0
 23 24  1  0
 24 25  2  0
 25 26  1  0
 26 27  2  0
 13  4  1  0
 20 15  1  0
 27 22  1  0
 12  7  1  0
 27 18  1  0
M  END
>  <AAScore>  (1) 
-8.128707437518013

>  <RootName>  (1) 
./4ZLY/04_DeltaGEst/trajectory_04/rank_01/lead_0078

$$$$
