confid_17
     RDKit          3D

 27 30  0  0  0  0  0  0  0  0999 V2000
   24.5500   26.3900   36.2500 N   0  0  0  0  0  0  0  0  0  0  0  0
   25.6000   26.1300   35.4000 C   0  0  0  0  0  0  0  0  0  0  0  0
   25.4300   25.4300   34.4200 O   0  0  0  0  0  0  0  0  0  0  0  0
   26.9800   26.6300   35.7100 C   0  0  0  0  0  0  0  0  0  0  0  0
   27.3200   26.8200   36.9800 N   0  0  0  0  0  0  0  0  0  0  0  0
   28.4700   27.4000   37.3100 N   0  0  0  0  0  0  0  0  0  0  0  0
   29.4000   27.6300   36.3700 C   0  0  0  0  0  0  0  0  0  0  0  0
   30.6600   28.0500   36.8000 C   0  0  0  0  0  0  0  0  0  0  0  0
   31.5700   28.3600   35.7800 C   0  0  0  0  0  0  0  0  0  0  0  0
   31.3700   28.1000   34.4300 C   0  0  0  0  0  0  0  0  0  0  0  0
   30.1200   27.5900   34.0500 C   0  0  0  0  0  0  0  0  0  0  0  0
   29.1500   27.3400   35.0300 C   0  0  0  0  0  0  0  0  0  0  0  0
   27.8800   26.8900   34.6600 C   0  0  0  0  0  0  0  0  0  0  0  0
   27.4800   26.6100   33.3700 N   0  0  0  0  0  0  0  0  0  0  0  0
   31.0050   28.2805   38.2261 C   0  0  0  0  0  0  0  0  0  0  0  0
   30.8077   27.2684   39.1781 C   0  0  0  0  0  0  0  0  0  0  0  0
   31.1466   27.4678   40.5291 C   0  0  0  0  0  0  0  0  0  0  0  0
   30.9782   26.3205   41.4967 C   0  0  0  0  0  0  0  0  0  0  0  0
   32.1301   26.2785   42.4219 N   0  0  0  0  0  0  0  0  0  0  0  0
   32.6293   24.9107   42.6414 C   0  0  0  0  0  0  0  0  0  0  0  0
   31.9276   27.0420   43.6800 C   0  0  2  0  0  0  0  0  0  0  0  0
   31.0502   26.3059   44.7144 C   0  0  0  0  0  0  0  0  0  0  0  0
   31.3514   28.4437   43.4032 C   0  0  0  0  0  0  0  0  0  0  0  0
   31.9643   29.0463   42.2665 O   0  0  0  0  0  0  0  0  0  0  0  0
   31.6576   28.7293   40.9331 C   0  0  0  0  0  0  0  0  0  0  0  0
   31.8846   29.7185   39.9702 C   0  0  0  0  0  0  0  0  0  0  0  0
   31.5633   29.5002   38.6307 C   0  0  0  0  0  0  0  0  0  0  0  0
  1  2  1  0
  2  3  2  0
  2  4  1  0
  4  5  2  0
  5  6  1  0
  6  7  2  0
  7  8  1  0
  8  9  2  0
  9 10  1  0
 10 11  2  0
 11 12  1  0
 12 13  2  0
 13 14  1  0
  8 15  1  0
 15 16  2  0
 16 17  1  0
 17 18  1  0
 18 19  1  0
 19 20  1  0
 19 21  1  0
 21 22  1  1
 21 23  1  0
 23 24  1  0
 24 25  1  0
 25 26  1  0
 26 27  2  0
 13  4  1  0
 27 15  1  0
 12  7  1  0
 25 17  2  0
M  END
>  <AAScore>  (1) 
27.62400747460817

>  <RootName>  (1) 
./4ZLY/04_DeltaGEst/trajectory_01/rank_01/lead_0034

$$$$
