confid_2
     RDKit          3D

 27 30  0  0  0  0  0  0  0  0999 V2000
   24.2000   26.2400   35.6900 N   0  0  0  0  0  0  0  0  0  0  0  0
   24.8500   26.2800   34.4800 C   0  0  0  0  0  0  0  0  0  0  0  0
   24.3100   25.7400   33.5400 O   0  0  0  0  0  0  0  0  0  0  0  0
   26.1800   26.9700   34.4700 C   0  0  0  0  0  0  0  0  0  0  0  0
   26.6500   27.6000   35.5500 N   0  0  0  0  0  0  0  0  0  0  0  0
   27.7900   28.2700   35.6200 N   0  0  0  0  0  0  0  0  0  0  0  0
   28.5400   28.3000   34.5100 C   0  0  0  0  0  0  0  0  0  0  0  0
   29.7700   28.9400   34.5600 C   0  0  0  0  0  0  0  0  0  0  0  0
   30.7000   28.8900   33.5000 C   0  0  0  0  0  0  0  0  0  0  0  0
   30.3700   28.1400   32.3700 C   0  0  0  0  0  0  0  0  0  0  0  0
   29.1200   27.5200   32.2800 C   0  0  0  0  0  0  0  0  0  0  0  0
   28.2100   27.6100   33.3300 C   0  0  0  0  0  0  0  0  0  0  0  0
   26.9700   26.9700   33.3100 C   0  0  0  0  0  0  0  0  0  0  0  0
   26.5300   26.2400   32.2200 N   0  0  0  0  0  0  0  0  0  0  0  0
   22.7713   26.1094   35.8358 C   0  0  0  0  0  0  0  0  0  0  0  0
   21.9506   26.2751   34.7630 N   0  0  0  0  0  0  0  0  0  0  0  0
   20.6002   26.1814   34.8606 C   0  0  0  0  0  0  0  0  0  0  0  0
   19.9937   25.9049   36.0950 C   0  0  0  0  0  0  0  0  0  0  0  0
   18.4876   25.9129   36.2059 C   0  0  0  0  0  0  0  0  0  0  0  0
   18.0085   24.6577   36.6491 O   0  0  0  0  0  0  0  0  0  0  0  0
   17.9056   24.6146   38.0597 C   0  0  0  0  0  0  0  0  0  0  0  0
   19.2514   24.2767   38.6995 C   0  0  0  0  0  0  0  0  0  0  0  0
   20.2395   25.3958   38.5483 C   0  0  0  0  0  0  0  0  0  0  0  0
   20.6148   26.0339   39.5687 O   0  0  0  0  0  0  0  0  0  0  0  0
   20.8163   25.7220   37.2274 C   0  0  0  0  0  0  0  0  0  0  0  0
   22.2106   25.8404   37.0938 C   0  0  0  0  0  0  0  0  0  0  0  0
   23.0177   25.6590   38.1718 F   0  0  0  0  0  0  0  0  0  0  0  0
  1  2  1  0
  2  3  2  0
  2  4  1  0
  4  5  2  0
  5  6  1  0
  6  7  2  0
  7  8  1  0
  8  9  2  0
  9 10  1  0
 10 11  2  0
 11 12  1  0
 12 13  2  0
 13 14  1  0
  1 15  1  0
 15 16  2  0
 16 17  1  0
 17 18  2  0
 18 19  1  0
 19 20  1  0
 20 21  1  0
 21 22  1  0
 22 23  1  0
 23 24  2  0
 23 25  1  0
 25 26  2  0
 26 27  1  0
 13  4  1  0
 26 15  1  0
 12  7  1  0
 25 18  1  0
M  END
>  <AAScore>  (1) 
306.40322674224774

>  <RootName>  (1) 
./4ZLY/04_DeltaGEst/trajectory_04/rank_00/lead_0057

$$$$
