confid_2
     RDKit          3D

 27 30  0  0  0  0  0  0  0  0999 V2000
   24.5700   26.8800   35.5900 N   0  0  0  0  0  0  0  0  0  0  0  0
   25.5000   26.4000   34.6900 C   0  0  0  0  0  0  0  0  0  0  0  0
   25.1700   25.5200   33.9100 O   0  0  0  0  0  0  0  0  0  0  0  0
   26.8400   27.0200   34.7400 C   0  0  0  0  0  0  0  0  0  0  0  0
   27.3800   27.2800   35.9400 N   0  0  0  0  0  0  0  0  0  0  0  0
   28.6200   27.7400   36.0300 N   0  0  0  0  0  0  0  0  0  0  0  0
   29.3800   28.0000   34.9600 C   0  0  0  0  0  0  0  0  0  0  0  0
   30.6700   28.5000   35.1300 C   0  0  0  0  0  0  0  0  0  0  0  0
   31.5400   28.6100   34.0300 C   0  0  0  0  0  0  0  0  0  0  0  0
   31.0900   28.2200   32.7700 C   0  0  0  0  0  0  0  0  0  0  0  0
   29.8000   27.7000   32.6000 C   0  0  0  0  0  0  0  0  0  0  0  0
   28.9600   27.5500   33.7100 C   0  0  0  0  0  0  0  0  0  0  0  0
   27.6600   27.0300   33.5900 C   0  0  0  0  0  0  0  0  0  0  0  0
   27.1600   26.7400   32.3400 N   0  0  0  0  0  0  0  0  0  0  0  0
   33.2063   29.1398   34.2611 S   0  0  0  0  0  6  0  0  0  0  0  0
   33.7467   29.6725   32.9633 O   0  0  0  0  0  0  0  0  0  0  0  0
   33.2433   30.2469   35.2774 O   0  0  0  0  0  0  0  0  0  0  0  0
   34.2404   27.7702   34.8076 C   0  0  2  0  0  0  0  0  0  0  0  0
   34.0123   26.5366   33.9488 C   0  0  0  0  0  0  0  0  0  0  0  0
   32.8928   25.8217   34.5642 N   0  0  0  0  0  0  0  0  0  0  0  0
   32.8802   24.3954   34.1907 C   0  0  0  0  0  0  0  0  0  0  0  0
   31.5541   23.7410   34.6194 C   0  0  0  0  0  0  0  0  0  0  0  0
   30.3386   24.2407   33.8404 C   0  0  0  0  0  0  0  0  0  0  0  0
   30.1263   22.8428   33.2770 C   0  0  0  0  0  0  0  0  0  0  0  0
   31.3440   22.3425   34.0428 C   0  0  0  0  0  0  0  0  0  0  0  0
   33.0293   26.0410   36.0123 C   0  0  0  0  0  0  0  0  0  0  0  0
   33.8661   27.3037   36.2096 C   0  0  0  0  0  0  0  0  0  0  0  0
  1  2  1  0
  2  3  2  0
  2  4  1  0
  4  5  2  0
  5  6  1  0
  6  7  2  0
  7  8  1  0
  8  9  2  0
  9 10  1  0
 10 11  2  0
 11 12  1  0
 12 13  2  0
 13 14  1  0
  9 15  1  0
 15 16  2  0
 15 17  2  0
 18 15  1  6
 18 19  1  0
 19 20  1  0
 20 21  1  0
 21 22  1  0
 22 23  1  0
 23 24  1  0
 24 25  1  0
 20 26  1  0
 26 27  1  0
 13  4  1  0
 27 18  1  0
 12  7  1  0
 25 22  1  0
M  END
>  <AAScore>  (1) 
240.24882885700464

>  <RootName>  (1) 
./4ZLY/04_DeltaGEst/trajectory_05/rank_01/lead_0276

$$$$
