confid_11
     RDKit          3D

 26 28  0  0  0  0  0  0  0  0999 V2000
   24.6900   26.1200   35.5300 N   0  0  0  0  0  0  0  0  0  0  0  0
   25.6600   25.6700   34.6600 C   0  0  0  0  0  0  0  0  0  0  0  0
   25.2400   25.0100   33.7200 O   0  0  0  0  0  0  0  0  0  0  0  0
   27.0300   26.2200   34.8800 C   0  0  0  0  0  0  0  0  0  0  0  0
   27.3500   26.7300   36.0700 N   0  0  0  0  0  0  0  0  0  0  0  0
   28.5700   27.1800   36.3300 N   0  0  0  0  0  0  0  0  0  0  0  0
   29.5300   27.1100   35.3900 C   0  0  0  0  0  0  0  0  0  0  0  0
   30.8300   27.5700   35.6500 C   0  0  0  0  0  0  0  0  0  0  0  0
   31.8500   27.5400   34.6900 C   0  0  0  0  0  0  0  0  0  0  0  0
   31.5100   27.1200   33.4000 C   0  0  0  0  0  0  0  0  0  0  0  0
   30.2200   26.6300   33.1100 C   0  0  0  0  0  0  0  0  0  0  0  0
   29.2400   26.6600   34.1000 C   0  0  0  0  0  0  0  0  0  0  0  0
   27.9300   26.2600   33.8100 C   0  0  0  0  0  0  0  0  0  0  0  0
   27.5200   25.7100   32.6100 N   0  0  0  0  0  0  0  0  0  0  0  0
   23.2922   26.2333   35.2124 C   0  0  0  0  0  0  0  0  0  0  0  0
   22.7769   26.0615   33.9725 N   0  0  0  0  0  0  0  0  0  0  0  0
   21.4676   26.2997   34.1885 C   0  0  0  0  0  0  0  0  0  0  0  0
   20.4850   26.2426   33.1963 O   0  0  0  0  0  0  0  0  0  0  0  0
   20.7817   25.9104   31.8455 C   0  0  0  0  0  0  0  0  0  0  0  0
   19.6307   26.0143   31.0886 F   0  0  0  0  0  0  0  0  0  0  0  0
   21.2564   24.6132   31.7731 F   0  0  0  0  0  0  0  0  0  0  0  0
   21.2159   26.6024   35.4741 N   0  0  0  0  0  0  0  0  0  0  0  0
   19.9181   26.9150   36.0780 C   0  0  0  0  0  0  0  0  0  0  0  0
   19.5605   25.8606   37.1282 C   0  0  0  0  0  0  0  0  0  0  0  0
   19.9471   28.3162   36.6934 C   0  0  0  0  0  0  0  0  0  0  0  0
   22.3622   26.5661   36.1304 N   0  0  0  0  0  0  0  0  0  0  0  0
  1  2  1  0
  2  3  2  0
  2  4  1  0
  4  5  2  0
  5  6  1  0
  6  7  2  0
  7  8  1  0
  8  9  2  0
  9 10  1  0
 10 11  2  0
 11 12  1  0
 12 13  2  0
 13 14  1  0
  1 15  1  0
 15 16  1  0
 16 17  2  0
 17 18  1  0
 18 19  1  0
 19 20  1  0
 19 21  1  0
 17 22  1  0
 22 23  1  0
 23 24  1  0
 23 25  1  0
 22 26  1  0
 13  4  1  0
 26 15  2  0
 12  7  1  0
M  END
>  <AAScore>  (1) 
586.0620394783512

>  <RootName>  (1) 
./4ZLY/04_DeltaGEst/trajectory_02/rank_00/lead_0442

$$$$
