confid_5
     RDKit          3D

 30 33  0  0  0  0  0  0  0  0999 V2000
   25.3300   26.2600   34.7600 N   0  0  0  0  0  0  0  0  0  0  0  0
   26.1200   25.9200   33.6900 C   0  0  0  0  0  0  0  0  0  0  0  0
   25.6300   25.1100   32.9400 O   0  0  0  0  0  0  0  0  0  0  0  0
   27.5200   26.3800   33.4600 C   0  0  0  0  0  0  0  0  0  0  0  0
   28.1600   26.6300   34.6100 N   0  0  0  0  0  0  0  0  0  0  0  0
   29.4800   26.8500   34.5700 N   0  0  0  0  0  0  0  0  0  0  0  0
   30.1900   26.7800   33.4400 C   0  0  0  0  0  0  0  0  0  0  0  0
   31.5600   27.0500   33.5000 C   0  0  0  0  0  0  0  0  0  0  0  0
   32.2700   27.2400   32.3100 C   0  0  0  0  0  0  0  0  0  0  0  0
   31.6100   27.2500   31.0800 C   0  0  0  0  0  0  0  0  0  0  0  0
   30.2700   26.8700   31.0600 C   0  0  0  0  0  0  0  0  0  0  0  0
   29.5100   26.6900   32.2300 C   0  0  0  0  0  0  0  0  0  0  0  0
   28.1400   26.4100   32.2000 C   0  0  0  0  0  0  0  0  0  0  0  0
   27.4300   26.1300   31.0500 N   0  0  0  0  0  0  0  0  0  0  0  0
   24.1779   25.5317   35.2277 C   0  0  0  0  0  0  0  0  0  0  0  0
   24.0259   25.3399   36.5664 N   0  0  0  0  0  0  0  0  0  0  0  0
   22.9632   24.6743   37.0881 C   0  0  0  0  0  0  0  0  0  0  0  0
   21.9777   24.1505   36.2425 C   0  0  0  0  0  0  0  0  0  0  0  0
   20.8005   23.4104   36.8059 C   0  0  0  0  0  0  0  0  0  0  0  0
   20.3698   22.3149   35.8352 C   0  0  0  0  0  0  0  0  0  0  0  0
   20.0995   22.8872   34.5092 N   0  0  0  0  0  0  0  0  0  0  0  0
   18.9476   22.4614   33.7579 C   0  0  0  0  0  0  0  0  0  0  0  0
   18.2692   23.3244   33.1368 O   0  0  0  0  0  0  0  0  0  0  0  0
   18.5696   21.0698   33.6788 N   0  0  0  0  0  0  0  0  0  0  0  0
   17.2039   20.7048   33.2795 C   0  0  0  0  0  0  0  0  0  0  0  0
   17.0954   20.5965   31.7600 C   0  0  0  0  0  0  0  0  0  0  0  0
   19.5888   20.0186   33.7698 C   0  0  0  0  0  0  0  0  0  0  0  0
   20.9860   23.9067   33.9175 C   0  0  0  0  0  0  0  0  0  0  0  0
   22.0790   24.3654   34.8574 C   0  0  0  0  0  0  0  0  0  0  0  0
   23.1775   25.0745   34.3504 C   0  0  0  0  0  0  0  0  0  0  0  0
  1  2  1  0
  2  3  2  0
  2  4  1  0
  4  5  2  0
  5  6  1  0
  6  7  2  0
  7  8  1  0
  8  9  2  0
  9 10  1  0
 10 11  2  0
 11 12  1  0
 12 13  2  0
 13 14  1  0
  1 15  1  0
 15 16  2  0
 16 17  1  0
 17 18  2  0
 18 19  1  0
 19 20  1  0
 20 21  1  0
 21 22  1  0
 22 23  2  0
 22 24  1  0
 24 25  1  0
 25 26  1  0
 24 27  1  0
 21 28  1  0
 28 29  1  0
 29 30  2  0
 13  4  1  0
 30 15  1  0
 12  7  1  0
 29 18  1  0
M  END
>  <AAScore>  (1) 
10317.069954657944

>  <RootName>  (1) 
./4ZLY/04_DeltaGEst/trajectory_03/rank_00/lead_0331

$$$$
