confid_8
     RDKit          3D

 27 30  0  0  0  0  0  0  0  0999 V2000
   24.6900   26.1200   35.5300 N   0  0  0  0  0  0  0  0  0  0  0  0
   25.6600   25.6700   34.6600 C   0  0  0  0  0  0  0  0  0  0  0  0
   25.2400   25.0100   33.7200 O   0  0  0  0  0  0  0  0  0  0  0  0
   27.0300   26.2200   34.8800 C   0  0  0  0  0  0  0  0  0  0  0  0
   27.3500   26.7300   36.0700 N   0  0  0  0  0  0  0  0  0  0  0  0
   28.5700   27.1800   36.3300 N   0  0  0  0  0  0  0  0  0  0  0  0
   29.5300   27.1100   35.3900 C   0  0  0  0  0  0  0  0  0  0  0  0
   30.8300   27.5700   35.6500 C   0  0  0  0  0  0  0  0  0  0  0  0
   31.8500   27.5400   34.6900 C   0  0  0  0  0  0  0  0  0  0  0  0
   31.5100   27.1200   33.4000 C   0  0  0  0  0  0  0  0  0  0  0  0
   30.2200   26.6300   33.1100 C   0  0  0  0  0  0  0  0  0  0  0  0
   29.2400   26.6600   34.1000 C   0  0  0  0  0  0  0  0  0  0  0  0
   27.9300   26.2600   33.8100 C   0  0  0  0  0  0  0  0  0  0  0  0
   27.5200   25.7100   32.6100 N   0  0  0  0  0  0  0  0  0  0  0  0
   23.2811   26.1901   35.2380 C   0  0  0  0  0  0  0  0  0  0  0  0
   22.3900   25.9742   36.2448 N   0  0  0  0  0  0  0  0  0  0  0  0
   21.0457   26.0245   36.0495 C   0  0  0  0  0  0  0  0  0  0  0  0
   20.5322   26.3027   34.7779 C   0  0  0  0  0  0  0  0  0  0  0  0
   19.0413   26.3892   34.5456 C   0  0  0  0  0  0  0  0  0  0  0  0
   18.6777   25.9911   33.1675 N   0  0  0  0  0  0  0  0  0  0  0  0
   18.8795   24.5402   32.9329 C   0  0  0  0  0  0  0  0  0  0  0  0
   17.8351   24.0123   31.9530 C   0  0  0  0  0  0  0  0  0  0  0  0
   19.3774   26.8327   32.1653 C   0  0  0  0  0  0  0  0  0  0  0  0
   20.8700   26.8739   32.3878 C   0  0  0  0  0  0  0  0  0  0  0  0
   21.6295   27.2124   31.4400 O   0  0  0  0  0  0  0  0  0  0  0  0
   21.4212   26.5739   33.7259 C   0  0  0  0  0  0  0  0  0  0  0  0
   22.8055   26.5242   33.9575 C   0  0  0  0  0  0  0  0  0  0  0  0
  1  2  1  0
  2  3  2  0
  2  4  1  0
  4  5  2  0
  5  6  1  0
  6  7  2  0
  7  8  1  0
  8  9  2  0
  9 10  1  0
 10 11  2  0
 11 12  1  0
 12 13  2  0
 13 14  1  0
  1 15  1  0
 15 16  2  0
 16 17  1  0
 17 18  2  0
 18 19  1  0
 19 20  1  0
 20 21  1  0
 21 22  1  0
 20 23  1  0
 23 24  1  0
 24 25  2  0
 24 26  1  0
 26 27  2  0
 13  4  1  0
 27 15  1  0
 12  7  1  0
 26 18  1  0
M  END
>  <AAScore>  (1) 
300.1820685824838

>  <RootName>  (1) 
./4ZLY/04_DeltaGEst/trajectory_02/rank_00/lead_0334

$$$$
