confid_12
     RDKit          3D

 26 28  0  0  0  0  0  0  0  0999 V2000
   24.5700   26.8800   35.5900 N   0  0  0  0  0  0  0  0  0  0  0  0
   25.5000   26.4000   34.6900 C   0  0  0  0  0  0  0  0  0  0  0  0
   25.1700   25.5200   33.9100 O   0  0  0  0  0  0  0  0  0  0  0  0
   26.8400   27.0200   34.7400 C   0  0  0  0  0  0  0  0  0  0  0  0
   27.3800   27.2800   35.9400 N   0  0  0  0  0  0  0  0  0  0  0  0
   28.6200   27.7400   36.0300 N   0  0  0  0  0  0  0  0  0  0  0  0
   29.3800   28.0000   34.9600 C   0  0  0  0  0  0  0  0  0  0  0  0
   30.6700   28.5000   35.1300 C   0  0  0  0  0  0  0  0  0  0  0  0
   31.5400   28.6100   34.0300 C   0  0  0  0  0  0  0  0  0  0  0  0
   31.0900   28.2200   32.7700 C   0  0  0  0  0  0  0  0  0  0  0  0
   29.8000   27.7000   32.6000 C   0  0  0  0  0  0  0  0  0  0  0  0
   28.9600   27.5500   33.7100 C   0  0  0  0  0  0  0  0  0  0  0  0
   27.6600   27.0300   33.5900 C   0  0  0  0  0  0  0  0  0  0  0  0
   27.1600   26.7400   32.3400 N   0  0  0  0  0  0  0  0  0  0  0  0
   23.2249   26.3088   35.6930 C   0  0  0  0  0  0  0  0  0  0  0  0
   22.4565   26.9624   36.8022 C   0  0  0  0  0  0  0  0  0  0  0  0
   21.5148   27.7527   36.5223 O   0  0  0  0  0  0  0  0  0  0  0  0
   22.7902   26.6732   38.1688 N   0  0  0  0  0  0  0  0  0  0  0  0
   22.2651   27.3945   39.2960 C   0  0  0  0  0  0  0  0  0  0  0  0
   22.0292   26.7127   40.5002 C   0  0  0  0  0  0  0  0  0  0  0  0
   21.5381   27.3966   41.6166 C   0  0  0  0  0  0  0  0  0  0  0  0
   21.2939   28.7707   41.5450 C   0  0  0  0  0  0  0  0  0  0  0  0
   21.5496   29.4647   40.3580 C   0  0  0  0  0  0  0  0  0  0  0  0
   21.3351   30.8025   40.2937 F   0  0  0  0  0  0  0  0  0  0  0  0
   22.0382   28.7825   39.2385 C   0  0  0  0  0  0  0  0  0  0  0  0
   20.8197   29.4308   42.6308 F   0  0  0  0  0  0  0  0  0  0  0  0
  1  2  1  0
  2  3  2  0
  2  4  1  0
  4  5  2  0
  5  6  1  0
  6  7  2  0
  7  8  1  0
  8  9  2  0
  9 10  1  0
 10 11  2  0
 11 12  1  0
 12 13  2  0
 13 14  1  0
  1 15  1  0
 15 16  1  0
 16 17  2  0
 16 18  1  0
 18 19  1  0
 19 20  2  0
 20 21  1  0
 21 22  2  0
 22 23  1  0
 23 24  1  0
 23 25  2  0
 22 26  1  0
 13  4  1  0
 25 19  1  0
 12  7  1  0
M  END
>  <AAScore>  (1) 
44.097598652185

>  <RootName>  (1) 
./4ZLY/04_DeltaGEst/trajectory_05/rank_00/lead_0189

$$$$
