confid_9
     RDKit          3D

 29 33  0  0  0  0  0  0  0  0999 V2000
   24.4800   26.1000   36.1300 N   0  0  0  0  0  0  0  0  0  0  0  0
   25.2500   26.2500   34.9900 C   0  0  0  0  0  0  0  0  0  0  0  0
   24.7400   25.7600   33.9900 O   0  0  0  0  0  0  0  0  0  0  0  0
   26.5900   26.8900   34.9600 C   0  0  0  0  0  0  0  0  0  0  0  0
   27.0600   27.2400   36.1600 N   0  0  0  0  0  0  0  0  0  0  0  0
   28.3000   27.7100   36.2400 N   0  0  0  0  0  0  0  0  0  0  0  0
   29.0500   27.9600   35.1500 C   0  0  0  0  0  0  0  0  0  0  0  0
   30.3400   28.4900   35.2600 C   0  0  0  0  0  0  0  0  0  0  0  0
   31.1100   28.8200   34.1400 C   0  0  0  0  0  0  0  0  0  0  0  0
   30.5200   28.6700   32.8800 C   0  0  0  0  0  0  0  0  0  0  0  0
   29.2900   28.0200   32.7700 C   0  0  0  0  0  0  0  0  0  0  0  0
   28.5200   27.7100   33.8900 C   0  0  0  0  0  0  0  0  0  0  0  0
   27.2700   27.0800   33.7600 C   0  0  0  0  0  0  0  0  0  0  0  0
   26.7500   26.8800   32.4900 N   0  0  0  0  0  0  0  0  0  0  0  0
   23.2176   25.4215   36.1664 C   0  0  0  0  0  0  0  0  0  0  0  0
   23.1616   24.2423   36.7109 N   0  0  0  0  0  0  0  0  0  0  0  0
   21.9786   23.4849   36.9940 C   0  0  0  0  0  0  0  0  0  0  0  0
   21.3044   22.8347   36.0473 C   0  0  0  0  0  0  0  0  0  0  0  0
   20.3237   21.7002   36.0181 C   0  0  0  0  0  0  0  0  0  0  0  0
   20.3436   21.5457   34.6363 O   0  0  0  0  0  0  0  0  0  0  0  0
   21.2146   22.6288   34.5546 C   0  0  1  0  0  0  0  0  0  0  0  0
   20.5275   23.7698   33.7821 C   0  0  0  0  0  0  0  0  0  0  0  0
   21.4174   25.0027   33.6016 C   0  0  0  0  0  0  0  0  0  0  0  0
   21.2144   25.9940   34.7082 C   0  0  0  0  0  0  0  0  0  0  0  0
   20.1944   26.9264   34.7799 C   0  0  0  0  0  0  0  0  0  0  0  0
   20.4077   27.6511   35.9365 C   0  0  0  0  0  0  0  0  0  0  0  0
   21.5024   27.1883   36.5730 N   0  0  0  0  0  0  0  0  0  0  0  0
   21.9978   26.1751   35.8319 C   0  0  0  0  0  0  0  0  0  0  0  0
   22.0683   27.7302   37.8052 C   0  0  0  0  0  0  0  0  0  0  0  0
  1  2  1  0
  2  3  2  0
  2  4  1  0
  4  5  2  0
  5  6  1  0
  6  7  2  0
  7  8  1  0
  8  9  2  0
  9 10  1  0
 10 11  2  0
 11 12  1  0
 12 13  2  0
 13 14  1  0
  1 15  1  0
 15 16  2  0
 16 17  1  0
 17 18  2  0
 18 19  1  0
 19 20  1  0
 20 21  1  0
 21 22  1  6
 22 23  1  0
 23 24  1  0
 24 25  1  0
 25 26  2  0
 26 27  1  0
 27 28  1  0
 27 29  1  0
 13  4  1  0
 28 15  1  0
 12  7  1  0
 21 18  1  0
 28 24  2  0
M  END
>  <AAScore>  (1) 
1547.120315498817

>  <RootName>  (1) 
./4ZLY/04_DeltaGEst/trajectory_00/rank_01/lead_0244

$$$$
