confid_2
     RDKit          3D

 29 32  0  0  0  0  0  0  0  0999 V2000
   24.6900   26.1200   35.5300 N   0  0  0  0  0  0  0  0  0  0  0  0
   25.6600   25.6700   34.6600 C   0  0  0  0  0  0  0  0  0  0  0  0
   25.2400   25.0100   33.7200 O   0  0  0  0  0  0  0  0  0  0  0  0
   27.0300   26.2200   34.8800 C   0  0  0  0  0  0  0  0  0  0  0  0
   27.3500   26.7300   36.0700 N   0  0  0  0  0  0  0  0  0  0  0  0
   28.5700   27.1800   36.3300 N   0  0  0  0  0  0  0  0  0  0  0  0
   29.5300   27.1100   35.3900 C   0  0  0  0  0  0  0  0  0  0  0  0
   30.8300   27.5700   35.6500 C   0  0  0  0  0  0  0  0  0  0  0  0
   31.8500   27.5400   34.6900 C   0  0  0  0  0  0  0  0  0  0  0  0
   31.5100   27.1200   33.4000 C   0  0  0  0  0  0  0  0  0  0  0  0
   30.2200   26.6300   33.1100 C   0  0  0  0  0  0  0  0  0  0  0  0
   29.2400   26.6600   34.1000 C   0  0  0  0  0  0  0  0  0  0  0  0
   27.9300   26.2600   33.8100 C   0  0  0  0  0  0  0  0  0  0  0  0
   27.5200   25.7100   32.6100 N   0  0  0  0  0  0  0  0  0  0  0  0
   31.1625   28.0643   36.9569 N   0  0  0  0  0  0  0  0  0  0  0  0
   31.1515   29.5054   37.1926 C   0  0  0  0  0  0  0  0  0  0  0  0
   32.2170   29.8857   38.2271 C   0  0  0  0  0  0  0  0  0  0  0  0
   32.2046   29.0075   39.4147 N   0  0  0  0  0  0  0  0  0  0  0  0
   31.4556   29.4881   40.5961 C   0  0  0  0  0  0  0  0  0  0  0  0
   29.9565   29.4778   40.4114 C   0  0  0  0  0  0  0  0  0  0  0  0
   29.2946   30.6115   39.9099 C   0  0  0  0  0  0  0  0  0  0  0  0
   27.9006   30.6061   39.7378 C   0  0  0  0  0  0  0  0  0  0  0  0
   27.1668   29.4568   40.0757 C   0  0  0  0  0  0  0  0  0  0  0  0
   25.8216   29.4194   39.8960 F   0  0  0  0  0  0  0  0  0  0  0  0
   27.8194   28.3386   40.6022 C   0  0  0  0  0  0  0  0  0  0  0  0
   29.2052   28.3500   40.7781 C   0  0  0  0  0  0  0  0  0  0  0  0
   27.2029   31.7998   39.1534 C   0  0  0  0  0  0  0  0  0  0  0  0
   32.1663   27.5564   39.1405 C   0  0  0  0  0  0  0  0  0  0  0  0
   31.0967   27.1733   38.1132 C   0  0  0  0  0  0  0  0  0  0  0  0
  1  2  1  0
  2  3  2  0
  2  4  1  0
  4  5  2  0
  5  6  1  0
  6  7  2  0
  7  8  1  0
  8  9  2  0
  9 10  1  0
 10 11  2  0
 11 12  1  0
 12 13  2  0
 13 14  1  0
  8 15  1  0
 15 16  1  0
 16 17  1  0
 17 18  1  0
 18 19  1  0
 19 20  1  0
 20 21  2  0
 21 22  1  0
 22 23  2  0
 23 24  1  0
 23 25  1  0
 25 26  2  0
 22 27  1  0
 18 28  1  0
 28 29  1  0
 13  4  1  0
 29 15  1  0
 12  7  1  0
 26 20  1  0
M  END
>  <AAScore>  (1) 
19.54484177587646

>  <RootName>  (1) 
./4ZLY/04_DeltaGEst/trajectory_02/rank_01/lead_0179

$$$$
