confid_15
     RDKit          3D

 26 28  0  0  0  0  0  0  0  0999 V2000
   24.4800   26.1000   36.1300 N   0  0  0  0  0  0  0  0  0  0  0  0
   25.2500   26.2500   34.9900 C   0  0  0  0  0  0  0  0  0  0  0  0
   24.7400   25.7600   33.9900 O   0  0  0  0  0  0  0  0  0  0  0  0
   26.5900   26.8900   34.9600 C   0  0  0  0  0  0  0  0  0  0  0  0
   27.0600   27.2400   36.1600 N   0  0  0  0  0  0  0  0  0  0  0  0
   28.3000   27.7100   36.2400 N   0  0  0  0  0  0  0  0  0  0  0  0
   29.0500   27.9600   35.1500 C   0  0  0  0  0  0  0  0  0  0  0  0
   30.3400   28.4900   35.2600 C   0  0  0  0  0  0  0  0  0  0  0  0
   31.1100   28.8200   34.1400 C   0  0  0  0  0  0  0  0  0  0  0  0
   30.5200   28.6700   32.8800 C   0  0  0  0  0  0  0  0  0  0  0  0
   29.2900   28.0200   32.7700 C   0  0  0  0  0  0  0  0  0  0  0  0
   28.5200   27.7100   33.8900 C   0  0  0  0  0  0  0  0  0  0  0  0
   27.2700   27.0800   33.7600 C   0  0  0  0  0  0  0  0  0  0  0  0
   26.7500   26.8800   32.4900 N   0  0  0  0  0  0  0  0  0  0  0  0
   23.4652   25.0998   36.3345 C   0  0  0  0  0  0  0  0  0  0  0  0
   22.6693   25.1732   37.4328 N   0  0  0  0  0  0  0  0  0  0  0  0
   21.7098   24.2406   37.6822 C   0  0  0  0  0  0  0  0  0  0  0  0
   20.9028   24.3453   38.8212 O   0  0  0  0  0  0  0  0  0  0  0  0
   21.0309   25.4040   39.7627 C   0  0  0  0  0  0  0  0  0  0  0  0
   21.5321   23.1684   36.7914 C   0  0  0  0  0  0  0  0  0  0  0  0
   22.3729   23.1060   35.6697 C   0  0  0  0  0  0  0  0  0  0  0  0
   23.3146   24.0623   35.4682 N   0  0  0  0  0  0  0  0  0  0  0  0
   20.4755   22.1207   37.0490 C   0  0  0  0  0  0  0  0  0  0  0  0
   20.4485   21.1646   36.0482 F   0  0  0  0  0  0  0  0  0  0  0  0
   19.2323   22.7236   37.1129 F   0  0  0  0  0  0  0  0  0  0  0  0
   20.7348   21.4902   38.2524 F   0  0  0  0  0  0  0  0  0  0  0  0
  1  2  1  0
  2  3  2  0
  2  4  1  0
  4  5  2  0
  5  6  1  0
  6  7  2  0
  7  8  1  0
  8  9  2  0
  9 10  1  0
 10 11  2  0
 11 12  1  0
 12 13  2  0
 13 14  1  0
  1 15  1  0
 15 16  2  0
 16 17  1  0
 17 18  1  0
 18 19  1  0
 17 20  2  0
 20 21  1  0
 21 22  2  0
 20 23  1  0
 23 24  1  0
 23 25  1  0
 23 26  1  0
 13  4  1  0
 22 15  1  0
 12  7  1  0
M  END
>  <AAScore>  (1) 
476.06817086007504

>  <RootName>  (1) 
./4ZLY/04_DeltaGEst/trajectory_00/rank_00/lead_0302

$$$$
