confid_4
     RDKit          3D

 26 29  0  0  0  0  0  0  0  0999 V2000
   24.4800   26.1000   36.1300 N   0  0  0  0  0  0  0  0  0  0  0  0
   25.2500   26.2500   34.9900 C   0  0  0  0  0  0  0  0  0  0  0  0
   24.7400   25.7600   33.9900 O   0  0  0  0  0  0  0  0  0  0  0  0
   26.5900   26.8900   34.9600 C   0  0  0  0  0  0  0  0  0  0  0  0
   27.0600   27.2400   36.1600 N   0  0  0  0  0  0  0  0  0  0  0  0
   28.3000   27.7100   36.2400 N   0  0  0  0  0  0  0  0  0  0  0  0
   29.0500   27.9600   35.1500 C   0  0  0  0  0  0  0  0  0  0  0  0
   30.3400   28.4900   35.2600 C   0  0  0  0  0  0  0  0  0  0  0  0
   31.1100   28.8200   34.1400 C   0  0  0  0  0  0  0  0  0  0  0  0
   30.5200   28.6700   32.8800 C   0  0  0  0  0  0  0  0  0  0  0  0
   29.2900   28.0200   32.7700 C   0  0  0  0  0  0  0  0  0  0  0  0
   28.5200   27.7100   33.8900 C   0  0  0  0  0  0  0  0  0  0  0  0
   27.2700   27.0800   33.7600 C   0  0  0  0  0  0  0  0  0  0  0  0
   26.7500   26.8800   32.4900 N   0  0  0  0  0  0  0  0  0  0  0  0
   23.4875   25.0750   36.3393 C   0  0  0  0  0  0  0  0  0  0  0  0
   23.3956   24.0108   35.4969 N   0  0  0  0  0  0  0  0  0  0  0  0
   22.4854   23.0200   35.6778 C   0  0  0  0  0  0  0  0  0  0  0  0
   21.5996   23.0540   36.7668 C   0  0  0  0  0  0  0  0  0  0  0  0
   20.5917   21.9333   36.9355 C   0  0  0  0  0  0  0  0  0  0  0  0
   19.1539   22.3891   36.6333 C   0  0  0  0  0  0  0  0  0  0  0  0
   18.2965   22.9694   38.1406 S   0  0  0  0  0  0  0  0  0  0  0  0
   19.3249   24.4249   38.3131 C   0  0  0  0  0  0  0  0  0  0  0  0
   18.9081   25.5117   37.9451 O   0  0  0  0  0  0  0  0  0  0  0  0
   20.7231   24.2831   38.8269 C   0  0  0  0  0  0  0  0  0  0  0  0
   21.6729   24.1491   37.6630 C   0  0  0  0  0  0  0  0  0  0  0  0
   22.6265   25.1547   37.4397 C   0  0  0  0  0  0  0  0  0  0  0  0
  1  2  1  0
  2  3  2  0
  2  4  1  0
  4  5  2  0
  5  6  1  0
  6  7  2  0
  7  8  1  0
  8  9  2  0
  9 10  1  0
 10 11  2  0
 11 12  1  0
 12 13  2  0
 13 14  1  0
  1 15  1  0
 15 16  2  0
 16 17  1  0
 17 18  2  0
 18 19  1  0
 19 20  1  0
 20 21  1  0
 21 22  1  0
 22 23  2  0
 22 24  1  0
 24 25  1  0
 25 26  2  0
 13  4  1  0
 26 15  1  0
 12  7  1  0
 25 18  1  0
M  END
>  <AAScore>  (1) 
537.1336291723445

>  <RootName>  (1) 
./4ZLY/04_DeltaGEst/trajectory_00/rank_00/lead_0493

$$$$
