confid_14
     RDKit          3D

 28 31  0  0  0  0  0  0  0  0999 V2000
   24.6900   26.1200   35.5300 N   0  0  0  0  0  0  0  0  0  0  0  0
   25.6600   25.6700   34.6600 C   0  0  0  0  0  0  0  0  0  0  0  0
   25.2400   25.0100   33.7200 O   0  0  0  0  0  0  0  0  0  0  0  0
   27.0300   26.2200   34.8800 C   0  0  0  0  0  0  0  0  0  0  0  0
   27.3500   26.7300   36.0700 N   0  0  0  0  0  0  0  0  0  0  0  0
   28.5700   27.1800   36.3300 N   0  0  0  0  0  0  0  0  0  0  0  0
   29.5300   27.1100   35.3900 C   0  0  0  0  0  0  0  0  0  0  0  0
   30.8300   27.5700   35.6500 C   0  0  0  0  0  0  0  0  0  0  0  0
   31.8500   27.5400   34.6900 C   0  0  0  0  0  0  0  0  0  0  0  0
   31.5100   27.1200   33.4000 C   0  0  0  0  0  0  0  0  0  0  0  0
   30.2200   26.6300   33.1100 C   0  0  0  0  0  0  0  0  0  0  0  0
   29.2400   26.6600   34.1000 C   0  0  0  0  0  0  0  0  0  0  0  0
   27.9300   26.2600   33.8100 C   0  0  0  0  0  0  0  0  0  0  0  0
   27.5200   25.7100   32.6100 N   0  0  0  0  0  0  0  0  0  0  0  0
   31.1560   28.0711   36.9542 N   0  0  0  0  0  0  0  0  0  0  0  0
   31.1700   27.1733   38.1131 C   0  0  0  0  0  0  0  0  0  0  0  0
   30.8869   27.9649   39.3911 C   0  0  0  0  0  0  0  0  0  0  0  0
   31.7460   29.2015   39.4702 C   0  0  0  0  0  0  0  0  0  0  0  0
   32.0716   29.7708   40.7123 C   0  0  0  0  0  0  0  0  0  0  0  0
   31.6717   29.1835   41.8687 F   0  0  0  0  0  0  0  0  0  0  0  0
   32.8027   30.9595   40.7674 C   0  0  0  0  0  0  0  0  0  0  0  0
   33.2011   31.5964   39.5904 C   0  0  0  0  0  0  0  0  0  0  0  0
   32.8766   31.0478   38.3402 C   0  0  0  0  0  0  0  0  0  0  0  0
   32.1358   29.8514   38.2832 C   0  0  0  0  0  0  0  0  0  0  0  0
   31.7786   29.3019   37.0474 O   0  0  0  0  0  0  0  0  0  0  0  0
   33.2917   31.7723   37.0833 C   0  0  0  0  0  0  0  0  0  0  0  0
   32.5007   32.9294   36.8918 O   0  0  0  0  0  0  0  0  0  0  0  0
   31.3276   32.6076   36.1766 C   0  0  0  0  0  0  0  0  0  0  0  0
  1  2  1  0
  2  3  2  0
  2  4  1  0
  4  5  2  0
  5  6  1  0
  6  7  2  0
  7  8  1  0
  8  9  2  0
  9 10  1  0
 10 11  2  0
 11 12  1  0
 12 13  2  0
 13 14  1  0
  8 15  1  0
 15 16  1  0
 16 17  1  0
 17 18  1  0
 18 19  2  0
 19 20  1  0
 19 21  1  0
 21 22  2  0
 22 23  1  0
 23 24  2  0
 24 25  1  0
 23 26  1  0
 26 27  1  0
 27 28  1  0
 13  4  1  0
 25 15  1  0
 12  7  1  0
 24 18  1  0
M  END
>  <AAScore>  (1) 
0.5450211051888895

>  <RootName>  (1) 
./4ZLY/04_DeltaGEst/trajectory_02/rank_01/lead_0251

$$$$
