confid_13
     RDKit          3D

 29 33  0  0  0  0  0  0  0  0999 V2000
   25.3300   26.2600   34.7600 N   0  0  0  0  0  0  0  0  0  0  0  0
   26.1200   25.9200   33.6900 C   0  0  0  0  0  0  0  0  0  0  0  0
   25.6300   25.1100   32.9400 O   0  0  0  0  0  0  0  0  0  0  0  0
   27.5200   26.3800   33.4600 C   0  0  0  0  0  0  0  0  0  0  0  0
   28.1600   26.6300   34.6100 N   0  0  0  0  0  0  0  0  0  0  0  0
   29.4800   26.8500   34.5700 N   0  0  0  0  0  0  0  0  0  0  0  0
   30.1900   26.7800   33.4400 C   0  0  0  0  0  0  0  0  0  0  0  0
   31.5600   27.0500   33.5000 C   0  0  0  0  0  0  0  0  0  0  0  0
   32.2700   27.2400   32.3100 C   0  0  0  0  0  0  0  0  0  0  0  0
   31.6100   27.2500   31.0800 C   0  0  0  0  0  0  0  0  0  0  0  0
   30.2700   26.8700   31.0600 C   0  0  0  0  0  0  0  0  0  0  0  0
   29.5100   26.6900   32.2300 C   0  0  0  0  0  0  0  0  0  0  0  0
   28.1400   26.4100   32.2000 C   0  0  0  0  0  0  0  0  0  0  0  0
   27.4300   26.1300   31.0500 N   0  0  0  0  0  0  0  0  0  0  0  0
   26.3875   27.0526   30.5637 C   0  0  0  0  0  0  0  0  0  0  0  0
   26.5980   27.3818   29.0744 C   0  0  0  0  0  0  0  0  0  0  0  0
   26.9653   26.1472   28.3126 C   0  0  0  0  0  0  0  0  0  0  0  0
   26.8442   25.9714   27.0156 O   0  0  0  0  0  0  0  0  0  0  0  0
   27.2775   24.7632   26.7201 C   0  0  0  0  0  0  0  0  0  0  0  0
   27.7221   24.1309   27.8736 C   0  0  0  0  0  0  0  0  0  0  0  0
   28.3090   22.7455   27.9928 C   0  0  0  0  0  0  0  0  0  0  0  0
   29.7320   22.6621   27.5895 N   0  0  0  0  0  0  0  0  0  0  0  0
   29.9253   22.7775   26.1305 C   0  0  0  0  0  0  0  0  0  0  0  0
   31.4000   22.5312   25.7858 C   0  0  0  0  0  0  0  0  0  0  0  0
   32.2509   23.4962   26.5002 N   0  0  0  0  0  0  0  0  0  0  0  0
   32.0629   23.3731   27.9521 C   0  0  0  0  0  0  0  0  0  0  0  0
   30.5946   23.6159   28.3195 C   0  0  0  0  0  0  0  0  0  0  0  0
   27.5123   25.0323   28.8942 C   0  0  0  0  0  0  0  0  0  0  0  0
   27.6318   24.8402   30.3727 C   0  0  0  0  0  0  0  0  0  0  0  0
  1  2  1  0
  2  3  2  0
  2  4  1  0
  4  5  2  0
  5  6  1  0
  6  7  2  0
  7  8  1  0
  8  9  2  0
  9 10  1  0
 10 11  2  0
 11 12  1  0
 12 13  2  0
 13 14  1  0
 14 15  1  0
 15 16  1  0
 16 17  1  0
 17 18  1  0
 18 19  1  0
 19 20  2  0
 20 21  1  0
 21 22  1  0
 22 23  1  0
 23 24  1  0
 24 25  1  0
 25 26  1  0
 26 27  1  0
 20 28  1  0
 28 29  1  0
 13  4  1  0
 29 14  1  0
 12  7  1  0
 28 17  2  0
 27 22  1  0
M  END
>  <AAScore>  (1) 
-1.654832998820169

>  <RootName>  (1) 
./4ZLY/04_DeltaGEst/trajectory_03/rank_01/lead_0478

$$$$
