confid_5
     RDKit          3D

 30 33  0  0  0  0  0  0  0  0999 V2000
   25.3300   26.2600   34.7600 N   0  0  0  0  0  0  0  0  0  0  0  0
   26.1200   25.9200   33.6900 C   0  0  0  0  0  0  0  0  0  0  0  0
   25.6300   25.1100   32.9400 O   0  0  0  0  0  0  0  0  0  0  0  0
   27.5200   26.3800   33.4600 C   0  0  0  0  0  0  0  0  0  0  0  0
   28.1600   26.6300   34.6100 N   0  0  0  0  0  0  0  0  0  0  0  0
   29.4800   26.8500   34.5700 N   0  0  0  0  0  0  0  0  0  0  0  0
   30.1900   26.7800   33.4400 C   0  0  0  0  0  0  0  0  0  0  0  0
   31.5600   27.0500   33.5000 C   0  0  0  0  0  0  0  0  0  0  0  0
   32.2700   27.2400   32.3100 C   0  0  0  0  0  0  0  0  0  0  0  0
   31.6100   27.2500   31.0800 C   0  0  0  0  0  0  0  0  0  0  0  0
   30.2700   26.8700   31.0600 C   0  0  0  0  0  0  0  0  0  0  0  0
   29.5100   26.6900   32.2300 C   0  0  0  0  0  0  0  0  0  0  0  0
   28.1400   26.4100   32.2000 C   0  0  0  0  0  0  0  0  0  0  0  0
   27.4300   26.1300   31.0500 N   0  0  0  0  0  0  0  0  0  0  0  0
   26.5124   27.1307   30.4957 C   0  0  0  0  0  0  0  0  0  0  0  0
   26.7644   27.2813   28.9930 C   0  0  0  0  0  0  0  0  0  0  0  0
   26.8946   25.9733   28.3273 N   0  0  0  0  0  0  0  0  0  0  0  0
   27.0174   25.9005   26.8918 C   0  0  0  0  0  0  0  0  0  0  0  0
   26.5978   24.8810   26.2787 O   0  0  0  0  0  0  0  0  0  0  0  0
   27.6805   26.9956   26.0999 C   0  0  0  0  0  0  0  0  0  0  0  0
   29.1613   27.0298   26.3704 C   0  0  0  0  0  0  0  0  0  0  0  0
   29.6620   28.0286   27.1498 N   0  0  0  0  0  0  0  0  0  0  0  0
   30.9822   28.1167   27.4577 C   0  0  0  0  0  0  0  0  0  0  0  0
   31.8769   27.1613   26.9743 C   0  0  0  0  0  0  0  0  0  0  0  0
   33.5823   27.2622   27.3712 Cl  0  0  0  0  0  0  0  0  0  0  0  0
   31.3992   26.1264   26.1685 C   0  0  0  0  0  0  0  0  0  0  0  0
   30.0384   26.0515   25.8563 C   0  0  0  0  0  0  0  0  0  0  0  0
   29.4799   24.7421   24.8217 Cl  0  0  0  0  0  0  0  0  0  0  0  0
   26.7612   24.7357   29.1110 C   0  0  0  0  0  0  0  0  0  0  0  0
   27.6014   24.8278   30.3893 C   0  0  0  0  0  0  0  0  0  0  0  0
  1  2  1  0
  2  3  2  0
  2  4  1  0
  4  5  2  0
  5  6  1  0
  6  7  2  0
  7  8  1  0
  8  9  2  0
  9 10  1  0
 10 11  2  0
 11 12  1  0
 12 13  2  0
 13 14  1  0
 14 15  1  0
 15 16  1  0
 16 17  1  0
 17 18  1  0
 18 19  2  0
 18 20  1  0
 20 21  1  0
 21 22  2  0
 22 23  1  0
 23 24  2  0
 24 25  1  0
 24 26  1  0
 26 27  2  0
 27 28  1  0
 17 29  1  0
 29 30  1  0
 13  4  1  0
 30 14  1  0
 12  7  1  0
 27 21  1  0
M  END
>  <AAScore>  (1) 
-2.8845947974748314

>  <RootName>  (1) 
./4ZLY/04_DeltaGEst/trajectory_03/rank_01/lead_0470

$$$$
