confid_15
     RDKit          3D

 30 33  0  0  0  0  0  0  0  0999 V2000
   24.4800   26.1000   36.1300 N   0  0  0  0  0  0  0  0  0  0  0  0
   25.2500   26.2500   34.9900 C   0  0  0  0  0  0  0  0  0  0  0  0
   24.7400   25.7600   33.9900 O   0  0  0  0  0  0  0  0  0  0  0  0
   26.5900   26.8900   34.9600 C   0  0  0  0  0  0  0  0  0  0  0  0
   27.0600   27.2400   36.1600 N   0  0  0  0  0  0  0  0  0  0  0  0
   28.3000   27.7100   36.2400 N   0  0  0  0  0  0  0  0  0  0  0  0
   29.0500   27.9600   35.1500 C   0  0  0  0  0  0  0  0  0  0  0  0
   30.3400   28.4900   35.2600 C   0  0  0  0  0  0  0  0  0  0  0  0
   31.1100   28.8200   34.1400 C   0  0  0  0  0  0  0  0  0  0  0  0
   30.5200   28.6700   32.8800 C   0  0  0  0  0  0  0  0  0  0  0  0
   29.2900   28.0200   32.7700 C   0  0  0  0  0  0  0  0  0  0  0  0
   28.5200   27.7100   33.8900 C   0  0  0  0  0  0  0  0  0  0  0  0
   27.2700   27.0800   33.7600 C   0  0  0  0  0  0  0  0  0  0  0  0
   26.7500   26.8800   32.4900 N   0  0  0  0  0  0  0  0  0  0  0  0
   23.0333   26.1059   36.1947 C   0  0  0  0  0  0  0  0  0  0  0  0
   22.4208   26.1250   37.3351 N   0  0  0  0  0  0  0  0  0  0  0  0
   21.0280   26.0527   37.0769 C   0  0  0  0  0  0  0  0  0  0  0  0
   20.7899   26.0043   35.7736 C   0  0  0  0  0  0  0  0  0  0  0  0
   19.8296   25.0636   35.1532 C   0  0  0  0  0  0  0  0  0  0  0  0
   20.5764   24.4211   34.0556 N   0  0  0  0  0  0  0  0  0  0  0  0
   20.3880   22.9621   34.0355 C   0  0  0  0  0  0  0  0  0  0  0  0
   22.0038   24.7791   34.2253 C   0  0  0  0  0  0  0  0  0  0  0  0
   22.0587   26.0893   35.0310 C   0  0  2  0  0  0  0  0  0  0  0  0
   22.1078   27.3611   34.1317 C   0  0  0  0  0  0  0  0  0  0  0  0
   21.7927   28.6836   34.8736 C   0  0  0  0  0  0  0  0  0  0  0  0
   22.2607   29.9824   34.1365 C   0  0  0  0  0  0  0  0  0  0  0  0
   21.6164   31.2154   34.8273 C   0  0  0  0  0  0  0  0  0  0  0  0
   22.0381   31.3127   36.1618 O   0  0  0  0  0  0  0  0  0  0  0  0
   23.8037   30.1202   34.2023 C   0  0  0  0  0  0  0  0  0  0  0  0
   21.8128   29.9758   32.6558 C   0  0  0  0  0  0  0  0  0  0  0  0
  1  2  1  0
  2  3  2  0
  2  4  1  0
  4  5  2  0
  5  6  1  0
  6  7  2  0
  7  8  1  0
  8  9  2  0
  9 10  1  0
 10 11  2  0
 11 12  1  0
 12 13  2  0
 13 14  1  0
  1 15  1  0
 15 16  2  0
 16 17  1  0
 17 18  2  0
 18 19  1  0
 19 20  1  0
 20 21  1  0
 20 22  1  0
 22 23  1  0
 23 24  1  6
 24 25  1  0
 25 26  1  0
 26 27  1  0
 27 28  1  0
 26 29  1  0
 26 30  1  0
 13  4  1  0
 23 15  1  0
 12  7  1  0
 23 18  1  0
M  END
>  <AAScore>  (1) 
944.452290066966

>  <RootName>  (1) 
./4ZLY/04_DeltaGEst/trajectory_00/rank_00/lead_0166

$$$$
