confid_12
     RDKit          3D

 30 33  0  0  0  0  0  0  0  0999 V2000
   25.3300   26.2600   34.7600 N   0  0  0  0  0  0  0  0  0  0  0  0
   26.1200   25.9200   33.6900 C   0  0  0  0  0  0  0  0  0  0  0  0
   25.6300   25.1100   32.9400 O   0  0  0  0  0  0  0  0  0  0  0  0
   27.5200   26.3800   33.4600 C   0  0  0  0  0  0  0  0  0  0  0  0
   28.1600   26.6300   34.6100 N   0  0  0  0  0  0  0  0  0  0  0  0
   29.4800   26.8500   34.5700 N   0  0  0  0  0  0  0  0  0  0  0  0
   30.1900   26.7800   33.4400 C   0  0  0  0  0  0  0  0  0  0  0  0
   31.5600   27.0500   33.5000 C   0  0  0  0  0  0  0  0  0  0  0  0
   32.2700   27.2400   32.3100 C   0  0  0  0  0  0  0  0  0  0  0  0
   31.6100   27.2500   31.0800 C   0  0  0  0  0  0  0  0  0  0  0  0
   30.2700   26.8700   31.0600 C   0  0  0  0  0  0  0  0  0  0  0  0
   29.5100   26.6900   32.2300 C   0  0  0  0  0  0  0  0  0  0  0  0
   28.1400   26.4100   32.2000 C   0  0  0  0  0  0  0  0  0  0  0  0
   27.4300   26.1300   31.0500 N   0  0  0  0  0  0  0  0  0  0  0  0
   27.5455   24.8166   30.4090 C   0  0  0  0  0  0  0  0  0  0  0  0
   27.5623   24.9767   28.8865 C   0  0  0  0  0  0  0  0  0  0  0  0
   26.4132   25.7948   28.4384 N   0  0  0  0  0  0  0  0  0  0  0  0
   26.3675   25.8737   26.9610 C   0  0  0  0  0  0  0  0  0  0  0  0
   25.6260   24.6620   26.3817 C   0  0  0  0  0  0  0  0  0  0  0  0
   25.4778   24.7787   24.8606 C   0  0  0  0  0  0  0  0  0  0  0  0
   24.7596   23.5778   24.3056 C   0  0  0  0  0  0  0  0  0  0  0  0
   23.3581   23.5705   24.2156 C   0  0  0  0  0  0  0  0  0  0  0  0
   22.6893   22.4423   23.7322 C   0  0  0  0  0  0  0  0  0  0  0  0
   23.4117   21.3106   23.3445 C   0  0  0  0  0  0  0  0  0  0  0  0
   24.8086   21.3028   23.4435 C   0  0  0  0  0  0  0  0  0  0  0  0
   25.4809   22.4327   23.9280 C   0  0  0  0  0  0  0  0  0  0  0  0
   25.5521   20.1340   23.0522 C   0  0  0  0  0  0  0  0  0  0  0  0
   26.1497   19.1943   22.7376 N   0  0  0  0  0  0  0  0  0  0  0  0
   26.5030   27.1489   29.0244 C   0  0  0  0  0  0  0  0  0  0  0  0
   26.4269   27.0736   30.5503 C   0  0  0  0  0  0  0  0  0  0  0  0
  1  2  1  0
  2  3  2  0
  2  4  1  0
  4  5  2  0
  5  6  1  0
  6  7  2  0
  7  8  1  0
  8  9  2  0
  9 10  1  0
 10 11  2  0
 11 12  1  0
 12 13  2  0
 13 14  1  0
 14 15  1  0
 15 16  1  0
 16 17  1  0
 17 18  1  0
 18 19  1  0
 19 20  1  0
 20 21  1  0
 21 22  2  0
 22 23  1  0
 23 24  2  0
 24 25  1  0
 25 26  2  0
 25 27  1  0
 27 28  3  0
 17 29  1  0
 29 30  1  0
 13  4  1  0
 30 14  1  0
 12  7  1  0
 26 21  1  0
M  END
>  <AAScore>  (1) 
1.2960511962048735

>  <RootName>  (1) 
./4ZLY/04_DeltaGEst/trajectory_03/rank_01/lead_0057

$$$$
