confid_9
     RDKit          3D

 28 31  0  0  0  0  0  0  0  0999 V2000
   24.4800   26.1000   36.1300 N   0  0  0  0  0  0  0  0  0  0  0  0
   25.2500   26.2500   34.9900 C   0  0  0  0  0  0  0  0  0  0  0  0
   24.7400   25.7600   33.9900 O   0  0  0  0  0  0  0  0  0  0  0  0
   26.5900   26.8900   34.9600 C   0  0  0  0  0  0  0  0  0  0  0  0
   27.0600   27.2400   36.1600 N   0  0  0  0  0  0  0  0  0  0  0  0
   28.3000   27.7100   36.2400 N   0  0  0  0  0  0  0  0  0  0  0  0
   29.0500   27.9600   35.1500 C   0  0  0  0  0  0  0  0  0  0  0  0
   30.3400   28.4900   35.2600 C   0  0  0  0  0  0  0  0  0  0  0  0
   31.1100   28.8200   34.1400 C   0  0  0  0  0  0  0  0  0  0  0  0
   30.5200   28.6700   32.8800 C   0  0  0  0  0  0  0  0  0  0  0  0
   29.2900   28.0200   32.7700 C   0  0  0  0  0  0  0  0  0  0  0  0
   28.5200   27.7100   33.8900 C   0  0  0  0  0  0  0  0  0  0  0  0
   27.2700   27.0800   33.7600 C   0  0  0  0  0  0  0  0  0  0  0  0
   26.7500   26.8800   32.4900 N   0  0  0  0  0  0  0  0  0  0  0  0
   23.4730   25.0909   36.3374 C   0  0  0  0  0  0  0  0  0  0  0  0
   22.4277   25.3657   37.1635 N   0  0  0  0  0  0  0  0  0  0  0  0
   21.4505   24.4584   37.4225 C   0  0  0  0  0  0  0  0  0  0  0  0
   21.4913   23.1889   36.8321 C   0  0  0  0  0  0  0  0  0  0  0  0
   20.4329   22.1674   37.1706 C   0  0  0  0  0  0  0  0  0  0  0  0
   20.3266   21.1014   36.1532 N   0  0  0  0  0  0  0  0  0  0  0  0
   19.6278   21.5679   34.9351 C   0  0  0  0  0  0  0  0  0  0  0  0
   19.2620   20.4079   34.0460 C   0  0  0  0  0  0  0  0  0  0  0  0
   19.7855   20.3018   32.6451 C   0  0  0  0  0  0  0  0  0  0  0  0
   18.5190   19.5363   34.4723 O   0  0  0  0  0  0  0  0  0  0  0  0
   21.6524   20.5005   35.8858 C   0  0  0  0  0  0  0  0  0  0  0  0
   22.6647   21.5138   35.3265 C   0  0  0  0  0  0  0  0  0  0  0  0
   22.5838   22.8544   36.0105 C   0  0  0  0  0  0  0  0  0  0  0  0
   23.5744   23.8132   35.7596 C   0  0  0  0  0  0  0  0  0  0  0  0
  1  2  1  0
  2  3  2  0
  2  4  1  0
  4  5  2  0
  5  6  1  0
  6  7  2  0
  7  8  1  0
  8  9  2  0
  9 10  1  0
 10 11  2  0
 11 12  1  0
 12 13  2  0
 13 14  1  0
  1 15  1  0
 15 16  2  0
 16 17  1  0
 17 18  2  0
 18 19  1  0
 19 20  1  0
 20 21  1  0
 21 22  1  0
 22 23  1  0
 22 24  2  0
 20 25  1  0
 25 26  1  0
 26 27  1  0
 27 28  2  0
 13  4  1  0
 28 15  1  0
 12  7  1  0
 27 18  1  0
M  END
>  <AAScore>  (1) 
674.3383500886339

>  <RootName>  (1) 
./4ZLY/04_DeltaGEst/trajectory_00/rank_01/lead_0005

$$$$
