confid_13
     RDKit          3D

 27 30  0  0  0  0  0  0  0  0999 V2000
   24.2000   26.2400   35.6900 N   0  0  0  0  0  0  0  0  0  0  0  0
   24.8500   26.2800   34.4800 C   0  0  0  0  0  0  0  0  0  0  0  0
   24.3100   25.7400   33.5400 O   0  0  0  0  0  0  0  0  0  0  0  0
   26.1800   26.9700   34.4700 C   0  0  0  0  0  0  0  0  0  0  0  0
   26.6500   27.6000   35.5500 N   0  0  0  0  0  0  0  0  0  0  0  0
   27.7900   28.2700   35.6200 N   0  0  0  0  0  0  0  0  0  0  0  0
   28.5400   28.3000   34.5100 C   0  0  0  0  0  0  0  0  0  0  0  0
   29.7700   28.9400   34.5600 C   0  0  0  0  0  0  0  0  0  0  0  0
   30.7000   28.8900   33.5000 C   0  0  0  0  0  0  0  0  0  0  0  0
   30.3700   28.1400   32.3700 C   0  0  0  0  0  0  0  0  0  0  0  0
   29.1200   27.5200   32.2800 C   0  0  0  0  0  0  0  0  0  0  0  0
   28.2100   27.6100   33.3300 C   0  0  0  0  0  0  0  0  0  0  0  0
   26.9700   26.9700   33.3100 C   0  0  0  0  0  0  0  0  0  0  0  0
   26.5300   26.2400   32.2200 N   0  0  0  0  0  0  0  0  0  0  0  0
   30.1418   29.6725   35.7421 N   0  0  0  0  0  0  0  0  0  0  0  0
   31.1456   29.0957   36.6527 C   0  0  0  0  0  0  0  0  0  0  0  0
   32.3561   30.0231   36.8929 C   0  0  0  0  0  0  0  0  0  0  0  0
   32.5823   31.0097   35.7747 C   0  0  0  0  0  0  0  0  0  0  0  0
   33.7028   30.8997   35.0124 N   0  0  0  0  0  0  0  0  0  0  0  0
   33.9463   31.7291   33.9670 C   0  0  0  0  0  0  0  0  0  0  0  0
   33.0265   32.7209   33.6301 C   0  0  0  0  0  0  0  0  0  0  0  0
   31.8486   32.8670   34.3849 C   0  0  0  0  0  0  0  0  0  0  0  0
   30.8838   33.8366   34.0643 O   0  0  0  0  0  0  0  0  0  0  0  0
   30.9768   34.7395   32.9669 C   0  0  0  0  0  0  0  0  0  0  0  0
   31.6291   32.0128   35.4854 C   0  0  0  0  0  0  0  0  0  0  0  0
   30.3642   32.1045   36.3152 C   0  0  0  0  0  0  0  0  0  0  0  0
   29.4200   30.9131   36.0737 C   0  0  0  0  0  0  0  0  0  0  0  0
  1  2  1  0
  2  3  2  0
  2  4  1  0
  4  5  2  0
  5  6  1  0
  6  7  2  0
  7  8  1  0
  8  9  2  0
  9 10  1  0
 10 11  2  0
 11 12  1  0
 12 13  2  0
 13 14  1  0
  8 15  1  0
 15 16  1  0
 16 17  1  0
 17 18  1  0
 18 19  2  0
 19 20  1  0
 20 21  2  0
 21 22  1  0
 22 23  1  0
 23 24  1  0
 22 25  2  0
 25 26  1  0
 26 27  1  0
 13  4  1  0
 27 15  1  0
 12  7  1  0
 25 18  1  0
M  END
>  <AAScore>  (1) 
-6.017485074973396

>  <RootName>  (1) 
./4ZLY/04_DeltaGEst/trajectory_04/rank_01/lead_0204

$$$$
