confid_13
     RDKit          3D

 27 30  0  0  0  0  0  0  0  0999 V2000
   24.6900   26.1200   35.5300 N   0  0  0  0  0  0  0  0  0  0  0  0
   25.6600   25.6700   34.6600 C   0  0  0  0  0  0  0  0  0  0  0  0
   25.2400   25.0100   33.7200 O   0  0  0  0  0  0  0  0  0  0  0  0
   27.0300   26.2200   34.8800 C   0  0  0  0  0  0  0  0  0  0  0  0
   27.3500   26.7300   36.0700 N   0  0  0  0  0  0  0  0  0  0  0  0
   28.5700   27.1800   36.3300 N   0  0  0  0  0  0  0  0  0  0  0  0
   29.5300   27.1100   35.3900 C   0  0  0  0  0  0  0  0  0  0  0  0
   30.8300   27.5700   35.6500 C   0  0  0  0  0  0  0  0  0  0  0  0
   31.8500   27.5400   34.6900 C   0  0  0  0  0  0  0  0  0  0  0  0
   31.5100   27.1200   33.4000 C   0  0  0  0  0  0  0  0  0  0  0  0
   30.2200   26.6300   33.1100 C   0  0  0  0  0  0  0  0  0  0  0  0
   29.2400   26.6600   34.1000 C   0  0  0  0  0  0  0  0  0  0  0  0
   27.9300   26.2600   33.8100 C   0  0  0  0  0  0  0  0  0  0  0  0
   27.5200   25.7100   32.6100 N   0  0  0  0  0  0  0  0  0  0  0  0
   31.1434   28.0657   36.9611 N   0  0  0  0  0  0  0  0  0  0  0  0
   32.1053   27.3390   37.7966 C   0  0  0  0  0  0  0  0  0  0  0  0
   32.0816   27.8668   39.2318 C   0  0  0  0  0  0  0  0  0  0  0  0
   30.6873   28.1715   39.6037 N   0  0  0  0  0  0  0  0  0  0  0  0
   30.5513   28.3757   41.0593 C   0  0  0  0  0  0  0  0  0  0  0  0
   30.5313   27.0528   41.7706 C   0  0  0  0  0  0  0  0  0  0  0  0
   29.4935   26.1375   41.6287 C   0  0  0  0  0  0  0  0  0  0  0  0
   29.8643   24.7846   42.5553 S   0  0  0  0  0  0  0  0  0  0  0  0
   31.3387   25.3373   43.1430 C   0  0  0  0  0  0  0  0  0  0  0  0
   31.5592   26.6003   42.6139 C   0  0  0  0  0  0  0  0  0  0  0  0
   32.6754   27.3207   42.8855 F   0  0  0  0  0  0  0  0  0  0  0  0
   30.1951   29.3576   38.8659 C   0  0  0  0  0  0  0  0  0  0  0  0
   30.6394   29.3763   37.3862 C   0  0  0  0  0  0  0  0  0  0  0  0
  1  2  1  0
  2  3  2  0
  2  4  1  0
  4  5  2  0
  5  6  1  0
  6  7  2  0
  7  8  1  0
  8  9  2  0
  9 10  1  0
 10 11  2  0
 11 12  1  0
 12 13  2  0
 13 14  1  0
  8 15  1  0
 15 16  1  0
 16 17  1  0
 17 18  1  0
 18 19  1  0
 19 20  1  0
 20 21  2  0
 21 22  1  0
 22 23  1  0
 23 24  2  0
 24 25  1  0
 18 26  1  0
 26 27  1  0
 13  4  1  0
 27 15  1  0
 12  7  1  0
 24 20  1  0
M  END
>  <AAScore>  (1) 
12.205509259905352

>  <RootName>  (1) 
./4ZLY/04_DeltaGEst/trajectory_02/rank_01/lead_0203

$$$$
