confid_18
     RDKit          3D

 26 28  0  0  0  0  0  0  0  0999 V2000
   24.5700   26.8800   35.5900 N   0  0  0  0  0  0  0  0  0  0  0  0
   25.5000   26.4000   34.6900 C   0  0  0  0  0  0  0  0  0  0  0  0
   25.1700   25.5200   33.9100 O   0  0  0  0  0  0  0  0  0  0  0  0
   26.8400   27.0200   34.7400 C   0  0  0  0  0  0  0  0  0  0  0  0
   27.3800   27.2800   35.9400 N   0  0  0  0  0  0  0  0  0  0  0  0
   28.6200   27.7400   36.0300 N   0  0  0  0  0  0  0  0  0  0  0  0
   29.3800   28.0000   34.9600 C   0  0  0  0  0  0  0  0  0  0  0  0
   30.6700   28.5000   35.1300 C   0  0  0  0  0  0  0  0  0  0  0  0
   31.5400   28.6100   34.0300 C   0  0  0  0  0  0  0  0  0  0  0  0
   31.0900   28.2200   32.7700 C   0  0  0  0  0  0  0  0  0  0  0  0
   29.8000   27.7000   32.6000 C   0  0  0  0  0  0  0  0  0  0  0  0
   28.9600   27.5500   33.7100 C   0  0  0  0  0  0  0  0  0  0  0  0
   27.6600   27.0300   33.5900 C   0  0  0  0  0  0  0  0  0  0  0  0
   27.1600   26.7400   32.3400 N   0  0  0  0  0  0  0  0  0  0  0  0
   33.1380   29.3218   34.2253 S   0  0  0  0  0  6  0  0  0  0  0  0
   34.0223   28.8693   33.0961 O   0  0  0  0  0  0  0  0  0  0  0  0
   33.7368   28.8636   35.5253 O   0  0  0  0  0  0  0  0  0  0  0  0
   32.9577   31.1120   34.2315 C   0  0  2  0  0  0  0  0  0  0  0  0
   32.3692   31.6468   32.9372 C   0  0  0  0  0  0  0  0  0  0  0  0
   32.7847   33.0524   32.8417 N   0  0  0  0  0  0  0  0  0  0  0  0
   33.8788   33.2853   33.7995 C   0  0  0  0  0  0  0  0  0  0  0  0
   34.2294   31.9412   34.4489 C   0  0  2  0  0  0  0  0  0  0  0  0
   35.5041   31.3519   33.8234 C   0  0  0  0  0  0  0  0  0  0  0  0
   33.0133   33.5464   31.4648 C   0  0  0  0  0  0  0  0  0  0  0  0
   34.2436   32.9457   30.7455 C   0  0  0  0  0  0  0  0  0  0  0  0
   34.3275   33.4571   29.3074 C   0  0  0  0  0  0  0  0  0  0  0  0
  1  2  1  0
  2  3  2  0
  2  4  1  0
  4  5  2  0
  5  6  1  0
  6  7  2  0
  7  8  1  0
  8  9  2  0
  9 10  1  0
 10 11  2  0
 11 12  1  0
 12 13  2  0
 13 14  1  0
  9 15  1  0
 15 16  2  0
 15 17  2  0
 18 15  1  6
 18 19  1  0
 19 20  1  0
 20 21  1  0
 21 22  1  0
 22 23  1  6
 20 24  1  0
 24 25  1  0
 25 26  1  0
 13  4  1  0
 22 18  1  0
 12  7  1  0
M  END
>  <AAScore>  (1) 
6.618217750292518

>  <RootName>  (1) 
./4ZLY/04_DeltaGEst/trajectory_05/rank_01/lead_0365

$$$$
