confid_18
     RDKit          3D

 28 31  0  0  0  0  0  0  0  0999 V2000
   24.5700   26.8800   35.5900 N   0  0  0  0  0  0  0  0  0  0  0  0
   25.5000   26.4000   34.6900 C   0  0  0  0  0  0  0  0  0  0  0  0
   25.1700   25.5200   33.9100 O   0  0  0  0  0  0  0  0  0  0  0  0
   26.8400   27.0200   34.7400 C   0  0  0  0  0  0  0  0  0  0  0  0
   27.3800   27.2800   35.9400 N   0  0  0  0  0  0  0  0  0  0  0  0
   28.6200   27.7400   36.0300 N   0  0  0  0  0  0  0  0  0  0  0  0
   29.3800   28.0000   34.9600 C   0  0  0  0  0  0  0  0  0  0  0  0
   30.6700   28.5000   35.1300 C   0  0  0  0  0  0  0  0  0  0  0  0
   31.5400   28.6100   34.0300 C   0  0  0  0  0  0  0  0  0  0  0  0
   31.0900   28.2200   32.7700 C   0  0  0  0  0  0  0  0  0  0  0  0
   29.8000   27.7000   32.6000 C   0  0  0  0  0  0  0  0  0  0  0  0
   28.9600   27.5500   33.7100 C   0  0  0  0  0  0  0  0  0  0  0  0
   27.6600   27.0300   33.5900 C   0  0  0  0  0  0  0  0  0  0  0  0
   27.1600   26.7400   32.3400 N   0  0  0  0  0  0  0  0  0  0  0  0
   23.1559   26.8886   35.3397 C   0  0  0  0  0  0  0  0  0  0  0  0
   22.2567   26.6999   36.3270 N   0  0  0  0  0  0  0  0  0  0  0  0
   21.0681   26.9478   35.7445 C   0  0  0  0  0  0  0  0  0  0  0  0
   21.2611   27.3065   34.4254 C   0  0  0  0  0  0  0  0  0  0  0  0
   20.1824   27.9196   33.5525 C   0  0  2  0  0  0  0  0  0  0  0  0
   20.2776   27.5060   32.0740 C   0  0  0  0  0  0  0  0  0  0  0  0
   20.4819   26.0423   31.9683 N   0  0  0  0  0  0  0  0  0  0  0  0
   19.2263   25.3593   31.6157 C   0  0  0  0  0  0  0  0  0  0  0  0
   21.5597   25.6947   31.0185 C   0  0  0  0  0  0  0  0  0  0  0  0
   22.9230   25.7026   31.7202 C   0  0  0  0  0  0  0  0  0  0  0  0
   23.4211   27.0634   31.9313 N   0  0  0  0  0  0  0  0  0  0  0  0
   23.2695   27.7683   33.0148 C   0  0  0  0  0  0  0  0  0  0  0  0
   22.5872   27.2528   34.1657 N   0  0  0  0  0  0  0  0  0  0  0  0
   20.1952   29.4449   33.6954 C   0  0  0  0  0  0  0  0  0  0  0  0
  1  2  1  0
  2  3  2  0
  2  4  1  0
  4  5  2  0
  5  6  1  0
  6  7  2  0
  7  8  1  0
  8  9  2  0
  9 10  1  0
 10 11  2  0
 11 12  1  0
 12 13  2  0
 13 14  1  0
  1 15  1  0
 15 16  2  0
 16 17  1  0
 17 18  2  0
 18 19  1  0
 19 20  1  0
 20 21  1  0
 21 22  1  0
 21 23  1  0
 23 24  1  0
 24 25  1  0
 25 26  2  0
 26 27  1  0
 19 28  1  6
 13  4  1  0
 27 15  1  0
 12  7  1  0
 27 18  1  0
M  END
>  <AAScore>  (1) 
17036.125940604565

>  <RootName>  (1) 
./4ZLY/04_DeltaGEst/trajectory_05/rank_00/lead_0036

$$$$
