confid_6
     RDKit          3D

 27 31  0  0  0  0  0  0  0  0999 V2000
   24.5700   26.8800   35.5900 N   0  0  0  0  0  0  0  0  0  0  0  0
   25.5000   26.4000   34.6900 C   0  0  0  0  0  0  0  0  0  0  0  0
   25.1700   25.5200   33.9100 O   0  0  0  0  0  0  0  0  0  0  0  0
   26.8400   27.0200   34.7400 C   0  0  0  0  0  0  0  0  0  0  0  0
   27.3800   27.2800   35.9400 N   0  0  0  0  0  0  0  0  0  0  0  0
   28.6200   27.7400   36.0300 N   0  0  0  0  0  0  0  0  0  0  0  0
   29.3800   28.0000   34.9600 C   0  0  0  0  0  0  0  0  0  0  0  0
   30.6700   28.5000   35.1300 C   0  0  0  0  0  0  0  0  0  0  0  0
   31.5400   28.6100   34.0300 C   0  0  0  0  0  0  0  0  0  0  0  0
   31.0900   28.2200   32.7700 C   0  0  0  0  0  0  0  0  0  0  0  0
   29.8000   27.7000   32.6000 C   0  0  0  0  0  0  0  0  0  0  0  0
   28.9600   27.5500   33.7100 C   0  0  0  0  0  0  0  0  0  0  0  0
   27.6600   27.0300   33.5900 C   0  0  0  0  0  0  0  0  0  0  0  0
   27.1600   26.7400   32.3400 N   0  0  0  0  0  0  0  0  0  0  0  0
   23.3154   26.2408   35.8955 C   0  0  0  0  0  0  0  0  0  0  0  0
   23.0311   24.9868   35.4237 N   0  0  0  0  0  0  0  0  0  0  0  0
   21.8606   24.3507   35.7107 C   0  0  0  0  0  0  0  0  0  0  0  0
   20.9223   24.9958   36.5160 C   0  0  0  0  0  0  0  0  0  0  0  0
   19.6003   24.4802   36.9638 C   0  0  1  0  0  0  0  0  0  0  0  0
   19.7468   23.2631   37.8974 C   0  0  0  0  0  0  0  0  0  0  0  0
   20.6617   23.5649   39.0191 N   0  0  0  0  0  0  0  0  0  0  0  0
   20.7082   22.4312   39.9718 C   0  0  0  0  0  0  0  0  0  0  0  0
   19.9705   23.6373   40.3293 C   0  0  0  0  0  0  0  0  0  0  0  0
   18.9604   25.7033   37.6674 C   0  0  0  0  0  0  0  0  0  0  0  0
   20.0675   26.7614   37.8374 C   0  0  0  0  0  0  0  0  0  0  0  0
   21.1776   26.2505   36.9999 C   0  0  0  0  0  0  0  0  0  0  0  0
   22.3773   26.9006   36.7121 C   0  0  0  0  0  0  0  0  0  0  0  0
  1  2  1  0
  2  3  2  0
  2  4  1  0
  4  5  2  0
  5  6  1  0
  6  7  2  0
  7  8  1  0
  8  9  2  0
  9 10  1  0
 10 11  2  0
 11 12  1  0
 12 13  2  0
 13 14  1  0
  1 15  1  0
 15 16  2  0
 16 17  1  0
 17 18  2  0
 18 19  1  0
 19 20  1  1
 20 21  1  0
 21 22  1  0
 22 23  1  0
 19 24  1  0
 24 25  1  0
 25 26  1  0
 26 27  2  0
 13  4  1  0
 27 15  1  0
 12  7  1  0
 26 18  1  0
 23 21  1  0
M  END
>  <AAScore>  (1) 
21705.289564706374

>  <RootName>  (1) 
./4ZLY/04_DeltaGEst/trajectory_05/rank_00/lead_0185

$$$$
