confid_16
     RDKit          3D

 28 30  0  0  0  0  0  0  0  0999 V2000
   24.5700   26.8800   35.5900 N   0  0  0  0  0  0  0  0  0  0  0  0
   25.5000   26.4000   34.6900 C   0  0  0  0  0  0  0  0  0  0  0  0
   25.1700   25.5200   33.9100 O   0  0  0  0  0  0  0  0  0  0  0  0
   26.8400   27.0200   34.7400 C   0  0  0  0  0  0  0  0  0  0  0  0
   27.3800   27.2800   35.9400 N   0  0  0  0  0  0  0  0  0  0  0  0
   28.6200   27.7400   36.0300 N   0  0  0  0  0  0  0  0  0  0  0  0
   29.3800   28.0000   34.9600 C   0  0  0  0  0  0  0  0  0  0  0  0
   30.6700   28.5000   35.1300 C   0  0  0  0  0  0  0  0  0  0  0  0
   31.5400   28.6100   34.0300 C   0  0  0  0  0  0  0  0  0  0  0  0
   31.0900   28.2200   32.7700 C   0  0  0  0  0  0  0  0  0  0  0  0
   29.8000   27.7000   32.6000 C   0  0  0  0  0  0  0  0  0  0  0  0
   28.9600   27.5500   33.7100 C   0  0  0  0  0  0  0  0  0  0  0  0
   27.6600   27.0300   33.5900 C   0  0  0  0  0  0  0  0  0  0  0  0
   27.1600   26.7400   32.3400 N   0  0  0  0  0  0  0  0  0  0  0  0
   33.1815   29.2109   34.2384 S   0  0  0  0  0  6  0  0  0  0  0  0
   33.5561   30.0285   33.0335 O   0  0  0  0  0  0  0  0  0  0  0  0
   33.2405   30.0877   35.4576 O   0  0  0  0  0  0  0  0  0  0  0  0
   34.2758   27.7959   34.4514 C   0  0  1  0  0  0  0  0  0  0  0  0
   34.5906   27.0794   33.1473 C   0  0  0  0  0  0  0  0  0  0  0  0
   36.0380   27.3262   33.2633 N   0  0  0  0  0  0  0  0  0  0  0  0
   35.7922   28.0260   34.5358 C   0  0  1  0  0  0  0  0  0  0  0  0
   36.2985   29.4832   34.4837 C   0  0  0  0  0  0  0  0  0  0  0  0
   37.8314   29.5827   34.6332 C   0  0  0  0  0  0  0  0  0  0  0  0
   38.6077   29.4282   33.3004 C   0  0  0  0  0  0  0  0  0  0  0  0
   40.0802   29.1031   33.5823 C   0  0  0  0  0  0  0  0  0  0  0  0
   38.5152   30.6973   32.4376 C   0  0  0  0  0  0  0  0  0  0  0  0
   36.8057   26.0830   33.4729 C   0  0  0  0  0  0  0  0  0  0  0  0
   37.0645   25.3934   32.1385 C   0  0  0  0  0  0  0  0  0  0  0  0
  1  2  1  0
  2  3  2  0
  2  4  1  0
  4  5  2  0
  5  6  1  0
  6  7  2  0
  7  8  1  0
  8  9  2  0
  9 10  1  0
 10 11  2  0
 11 12  1  0
 12 13  2  0
 13 14  1  0
  9 15  1  0
 15 16  2  0
 15 17  2  0
 18 15  1  6
 18 19  1  0
 19 20  1  0
 20 21  1  0
 21 22  1  6
 22 23  1  0
 23 24  1  0
 24 25  1  0
 24 26  1  0
 20 27  1  0
 27 28  1  0
 13  4  1  0
 21 18  1  0
 12  7  1  0
M  END
>  <AAScore>  (1) 
362.355378179584

>  <RootName>  (1) 
./4ZLY/04_DeltaGEst/trajectory_05/rank_01/lead_0233

$$$$
