confid_4
     RDKit          3D

 29 32  0  0  0  0  0  0  0  0999 V2000
   24.6900   26.1200   35.5300 N   0  0  0  0  0  0  0  0  0  0  0  0
   25.6600   25.6700   34.6600 C   0  0  0  0  0  0  0  0  0  0  0  0
   25.2400   25.0100   33.7200 O   0  0  0  0  0  0  0  0  0  0  0  0
   27.0300   26.2200   34.8800 C   0  0  0  0  0  0  0  0  0  0  0  0
   27.3500   26.7300   36.0700 N   0  0  0  0  0  0  0  0  0  0  0  0
   28.5700   27.1800   36.3300 N   0  0  0  0  0  0  0  0  0  0  0  0
   29.5300   27.1100   35.3900 C   0  0  0  0  0  0  0  0  0  0  0  0
   30.8300   27.5700   35.6500 C   0  0  0  0  0  0  0  0  0  0  0  0
   31.8500   27.5400   34.6900 C   0  0  0  0  0  0  0  0  0  0  0  0
   31.5100   27.1200   33.4000 C   0  0  0  0  0  0  0  0  0  0  0  0
   30.2200   26.6300   33.1100 C   0  0  0  0  0  0  0  0  0  0  0  0
   29.2400   26.6600   34.1000 C   0  0  0  0  0  0  0  0  0  0  0  0
   27.9300   26.2600   33.8100 C   0  0  0  0  0  0  0  0  0  0  0  0
   27.5200   25.7100   32.6100 N   0  0  0  0  0  0  0  0  0  0  0  0
   31.1673   28.0798   36.9595 N   0  0  0  0  0  0  0  0  0  0  0  0
   31.0415   27.1800   38.1226 C   0  0  0  0  0  0  0  0  0  0  0  0
   30.4174   27.8313   39.3709 C   0  0  0  0  0  0  0  0  0  0  0  0
   29.1363   28.5126   39.0917 N   0  0  0  0  0  0  0  0  0  0  0  0
   29.0069   29.7519   38.3238 C   0  0  0  0  0  0  0  0  0  0  0  0
   29.9950   30.6620   38.1579 C   0  0  0  0  0  0  0  0  0  0  0  0
   31.3510   30.5957   38.7111 C   0  0  0  0  0  0  0  0  0  0  0  0
   32.3315   29.9049   38.1176 C   0  0  0  0  0  0  0  0  0  0  0  0
   33.7364   30.0193   38.6181 C   0  0  0  0  0  0  0  0  0  0  0  0
   32.0843   29.1199   36.9894 O   0  0  0  0  0  0  0  0  0  0  0  0
   27.8999   27.8750   39.5924 C   0  0  0  0  0  0  0  0  0  0  0  0
   27.1472   28.7878   40.5806 C   0  0  0  0  0  0  0  0  0  0  0  0
   27.2184   30.1643   40.2514 O   0  0  0  0  0  0  0  0  0  0  0  0
   26.6418   30.4240   38.9829 C   0  0  0  0  0  0  0  0  0  0  0  0
   27.6241   30.1425   37.8239 C   0  0  0  0  0  0  0  0  0  0  0  0
  1  2  1  0
  2  3  2  0
  2  4  1  0
  4  5  2  0
  5  6  1  0
  6  7  2  0
  7  8  1  0
  8  9  2  0
  9 10  1  0
 10 11  2  0
 11 12  1  0
 12 13  2  0
 13 14  1  0
  8 15  1  0
 15 16  1  0
 16 17  1  0
 17 18  1  0
 18 19  1  0
 19 20  2  0
 20 21  1  0
 21 22  2  0
 22 23  1  0
 22 24  1  0
 18 25  1  0
 25 26  1  0
 26 27  1  0
 27 28  1  0
 28 29  1  0
 13  4  1  0
 24 15  1  0
 12  7  1  0
 29 19  1  0
M  END
>  <AAScore>  (1) 
-2.0999196910232345

>  <RootName>  (1) 
./4ZLY/04_DeltaGEst/trajectory_02/rank_01/lead_0427

$$$$
