confid_2
     RDKit          3D

 27 29  0  0  0  0  0  0  0  0999 V2000
   24.4800   26.1000   36.1300 N   0  0  0  0  0  0  0  0  0  0  0  0
   25.2500   26.2500   34.9900 C   0  0  0  0  0  0  0  0  0  0  0  0
   24.7400   25.7600   33.9900 O   0  0  0  0  0  0  0  0  0  0  0  0
   26.5900   26.8900   34.9600 C   0  0  0  0  0  0  0  0  0  0  0  0
   27.0600   27.2400   36.1600 N   0  0  0  0  0  0  0  0  0  0  0  0
   28.3000   27.7100   36.2400 N   0  0  0  0  0  0  0  0  0  0  0  0
   29.0500   27.9600   35.1500 C   0  0  0  0  0  0  0  0  0  0  0  0
   30.3400   28.4900   35.2600 C   0  0  0  0  0  0  0  0  0  0  0  0
   31.1100   28.8200   34.1400 C   0  0  0  0  0  0  0  0  0  0  0  0
   30.5200   28.6700   32.8800 C   0  0  0  0  0  0  0  0  0  0  0  0
   29.2900   28.0200   32.7700 C   0  0  0  0  0  0  0  0  0  0  0  0
   28.5200   27.7100   33.8900 C   0  0  0  0  0  0  0  0  0  0  0  0
   27.2700   27.0800   33.7600 C   0  0  0  0  0  0  0  0  0  0  0  0
   26.7500   26.8800   32.4900 N   0  0  0  0  0  0  0  0  0  0  0  0
   23.0389   26.0693   36.1526 C   0  0  0  0  0  0  0  0  0  0  0  0
   22.2729   26.7496   35.1864 C   0  0  0  0  0  0  0  0  0  0  0  0
   20.8738   26.7284   35.2475 C   0  0  0  0  0  0  0  0  0  0  0  0
   20.1067   27.4126   34.2521 N   0  0  0  0  0  0  0  0  0  0  0  0
   19.7898   26.7448   32.9888 C   0  0  0  0  0  0  0  0  0  0  0  0
   18.4095   26.1020   33.0570 C   0  0  0  0  0  0  0  0  0  0  0  0
   19.4715   28.9897   34.6091 S   0  0  0  0  0  6  0  0  0  0  0  0
   20.5835   29.8783   35.0912 O   0  0  0  0  0  0  0  0  0  0  0  0
   18.8708   29.5930   33.3702 O   0  0  0  0  0  0  0  0  0  0  0  0
   18.2131   28.8700   35.8608 C   0  0  0  0  0  0  0  0  0  0  0  0
   20.2315   26.0328   36.2787 C   0  0  0  0  0  0  0  0  0  0  0  0
   20.9846   25.3723   37.2515 C   0  0  0  0  0  0  0  0  0  0  0  0
   22.3810   25.3956   37.1935 C   0  0  0  0  0  0  0  0  0  0  0  0
  1  2  1  0
  2  3  2  0
  2  4  1  0
  4  5  2  0
  5  6  1  0
  6  7  2  0
  7  8  1  0
  8  9  2  0
  9 10  1  0
 10 11  2  0
 11 12  1  0
 12 13  2  0
 13 14  1  0
  1 15  1  0
 15 16  2  0
 16 17  1  0
 17 18  1  0
 18 19  1  0
 19 20  1  0
 18 21  1  0
 21 22  2  0
 21 23  2  0
 21 24  1  0
 17 25  2  0
 25 26  1  0
 26 27  2  0
 13  4  1  0
 27 15  1  0
 12  7  1  0
M  END
>  <AAScore>  (1) 
131.02870049243916

>  <RootName>  (1) 
./4ZLY/04_DeltaGEst/trajectory_00/rank_00/lead_0283

$$$$
