confid_2
     RDKit          3D

 29 33  0  0  0  0  0  0  0  0999 V2000
   24.5700   26.8800   35.5900 N   0  0  0  0  0  0  0  0  0  0  0  0
   25.5000   26.4000   34.6900 C   0  0  0  0  0  0  0  0  0  0  0  0
   25.1700   25.5200   33.9100 O   0  0  0  0  0  0  0  0  0  0  0  0
   26.8400   27.0200   34.7400 C   0  0  0  0  0  0  0  0  0  0  0  0
   27.3800   27.2800   35.9400 N   0  0  0  0  0  0  0  0  0  0  0  0
   28.6200   27.7400   36.0300 N   0  0  0  0  0  0  0  0  0  0  0  0
   29.3800   28.0000   34.9600 C   0  0  0  0  0  0  0  0  0  0  0  0
   30.6700   28.5000   35.1300 C   0  0  0  0  0  0  0  0  0  0  0  0
   31.5400   28.6100   34.0300 C   0  0  0  0  0  0  0  0  0  0  0  0
   31.0900   28.2200   32.7700 C   0  0  0  0  0  0  0  0  0  0  0  0
   29.8000   27.7000   32.6000 C   0  0  0  0  0  0  0  0  0  0  0  0
   28.9600   27.5500   33.7100 C   0  0  0  0  0  0  0  0  0  0  0  0
   27.6600   27.0300   33.5900 C   0  0  0  0  0  0  0  0  0  0  0  0
   27.1600   26.7400   32.3400 N   0  0  0  0  0  0  0  0  0  0  0  0
   23.2450   26.3493   35.7900 C   0  0  0  0  0  0  0  0  0  0  0  0
   22.7924   25.3771   35.0450 N   0  0  0  0  0  0  0  0  0  0  0  0
   21.5553   24.6228   35.1067 C   0  0  0  0  0  0  0  0  0  0  0  0
   20.3487   25.0077   35.6137 C   0  0  0  0  0  0  0  0  0  0  0  0
   19.9881   26.4483   35.9834 C   0  0  1  0  0  0  0  0  0  0  0  0
   18.5486   26.6569   36.5362 C   0  0  0  0  0  0  0  0  0  0  0  0
   17.4191   26.2228   35.6744 N   0  0  0  0  0  0  0  0  0  0  0  0
   17.7555   25.6237   34.3739 C   0  0  0  0  0  0  0  0  0  0  0  0
   18.2345   24.1716   34.5220 C   0  0  0  0  0  0  0  0  0  0  0  0
   19.2512   23.9642   35.6496 C   0  0  0  0  0  0  0  0  0  0  0  0
   20.9937   26.9598   36.9480 C   0  0  0  0  0  0  0  0  0  0  0  0
   21.1166   27.6525   38.0690 C   0  0  0  0  0  0  0  0  0  0  0  0
   22.5350   27.6373   37.9036 N   0  0  0  0  0  0  0  0  0  0  0  0
   22.4115   26.9236   36.8304 C   0  0  0  0  0  0  0  0  0  0  0  0
   20.1849   28.2922   39.0396 C   0  0  0  0  0  0  0  0  0  0  0  0
  1  2  1  0
  2  3  2  0
  2  4  1  0
  4  5  2  0
  5  6  1  0
  6  7  2  0
  7  8  1  0
  8  9  2  0
  9 10  1  0
 10 11  2  0
 11 12  1  0
 12 13  2  0
 13 14  1  0
  1 15  1  0
 15 16  2  0
 16 17  1  0
 17 18  2  0
 18 19  1  0
 19 20  1  1
 20 21  1  0
 21 22  1  0
 22 23  1  0
 23 24  1  0
 19 25  1  0
 25 26  2  0
 26 27  1  0
 27 28  2  0
 26 29  1  0
 13  4  1  0
 28 15  1  0
 12  7  1  0
 24 18  1  0
 28 25  1  0
M  END
>  <AAScore>  (1) 
28706.02350408075

>  <RootName>  (1) 
./4ZLY/04_DeltaGEst/trajectory_05/rank_00/lead_0420

$$$$
