confid_16
     RDKit          3D

 27 30  0  0  0  0  0  0  0  0999 V2000
   24.4800   26.1000   36.1300 N   0  0  0  0  0  0  0  0  0  0  0  0
   25.2500   26.2500   34.9900 C   0  0  0  0  0  0  0  0  0  0  0  0
   24.7400   25.7600   33.9900 O   0  0  0  0  0  0  0  0  0  0  0  0
   26.5900   26.8900   34.9600 C   0  0  0  0  0  0  0  0  0  0  0  0
   27.0600   27.2400   36.1600 N   0  0  0  0  0  0  0  0  0  0  0  0
   28.3000   27.7100   36.2400 N   0  0  0  0  0  0  0  0  0  0  0  0
   29.0500   27.9600   35.1500 C   0  0  0  0  0  0  0  0  0  0  0  0
   30.3400   28.4900   35.2600 C   0  0  0  0  0  0  0  0  0  0  0  0
   31.1100   28.8200   34.1400 C   0  0  0  0  0  0  0  0  0  0  0  0
   30.5200   28.6700   32.8800 C   0  0  0  0  0  0  0  0  0  0  0  0
   29.2900   28.0200   32.7700 C   0  0  0  0  0  0  0  0  0  0  0  0
   28.5200   27.7100   33.8900 C   0  0  0  0  0  0  0  0  0  0  0  0
   27.2700   27.0800   33.7600 C   0  0  0  0  0  0  0  0  0  0  0  0
   26.7500   26.8800   32.4900 N   0  0  0  0  0  0  0  0  0  0  0  0
   23.4870   25.0754   36.3390 C   0  0  0  0  0  0  0  0  0  0  0  0
   22.6262   25.1545   37.4435 C   0  0  0  0  0  0  0  0  0  0  0  0
   21.6691   24.1476   37.6665 C   0  0  0  0  0  0  0  0  0  0  0  0
   20.7712   24.2181   38.7973 N   0  0  0  0  0  0  0  0  0  0  0  0
   19.7121   23.2874   39.0732 C   0  0  0  0  0  0  0  0  0  0  0  0
   19.0347   23.8785   40.2958 C   0  0  0  0  0  0  0  0  0  0  0  0
   18.8655   22.9076   41.2669 F   0  0  0  0  0  0  0  0  0  0  0  0
   17.7959   24.3929   39.9529 F   0  0  0  0  0  0  0  0  0  0  0  0
   19.8399   24.9190   40.8090 O   0  0  0  0  0  0  0  0  0  0  0  0
   20.8066   25.2340   39.8311 C   0  0  0  0  0  0  0  0  0  0  0  0
   21.6067   23.0706   36.7651 C   0  0  0  0  0  0  0  0  0  0  0  0
   22.4854   23.0201   35.6826 C   0  0  0  0  0  0  0  0  0  0  0  0
   23.3969   24.0088   35.4969 N   0  0  0  0  0  0  0  0  0  0  0  0
  1  2  1  0
  2  3  2  0
  2  4  1  0
  4  5  2  0
  5  6  1  0
  6  7  2  0
  7  8  1  0
  8  9  2  0
  9 10  1  0
 10 11  2  0
 11 12  1  0
 12 13  2  0
 13 14  1  0
  1 15  1  0
 15 16  2  0
 16 17  1  0
 17 18  1  0
 18 19  1  0
 19 20  1  0
 20 21  1  0
 20 22  1  0
 20 23  1  0
 23 24  1  0
 17 25  2  0
 25 26  1  0
 26 27  2  0
 13  4  1  0
 27 15  1  0
 12  7  1  0
 24 18  1  0
M  END
>  <AAScore>  (1) 
501.60288919907055

>  <RootName>  (1) 
./4ZLY/04_DeltaGEst/trajectory_00/rank_00/lead_0019

$$$$
