confid_17
     RDKit          3D

 25 26  0  0  0  0  0  0  0  0999 V2000
   24.5700   26.8800   35.5900 N   0  0  0  0  0  0  0  0  0  0  0  0
   25.5000   26.4000   34.6900 C   0  0  0  0  0  0  0  0  0  0  0  0
   25.1700   25.5200   33.9100 O   0  0  0  0  0  0  0  0  0  0  0  0
   26.8400   27.0200   34.7400 C   0  0  0  0  0  0  0  0  0  0  0  0
   27.3800   27.2800   35.9400 N   0  0  0  0  0  0  0  0  0  0  0  0
   28.6200   27.7400   36.0300 N   0  0  0  0  0  0  0  0  0  0  0  0
   29.3800   28.0000   34.9600 C   0  0  0  0  0  0  0  0  0  0  0  0
   30.6700   28.5000   35.1300 C   0  0  0  0  0  0  0  0  0  0  0  0
   31.5400   28.6100   34.0300 C   0  0  0  0  0  0  0  0  0  0  0  0
   31.0900   28.2200   32.7700 C   0  0  0  0  0  0  0  0  0  0  0  0
   29.8000   27.7000   32.6000 C   0  0  0  0  0  0  0  0  0  0  0  0
   28.9600   27.5500   33.7100 C   0  0  0  0  0  0  0  0  0  0  0  0
   27.6600   27.0300   33.5900 C   0  0  0  0  0  0  0  0  0  0  0  0
   27.1600   26.7400   32.3400 N   0  0  0  0  0  0  0  0  0  0  0  0
   33.1697   29.2447   34.2505 S   0  0  0  0  0  6  0  0  0  0  0  0
   33.7747   28.5557   35.4420 O   0  0  0  0  0  0  0  0  0  0  0  0
   34.0111   28.8919   33.0557 O   0  0  0  0  0  0  0  0  0  0  0  0
   33.2199   31.0367   34.5202 C   0  0  2  0  0  0  0  0  0  0  0  0
   32.6553   31.3733   35.9227 C   0  0  0  0  0  0  0  0  0  0  0  0
   32.8877   32.8356   36.3365 C   0  0  0  0  0  0  0  0  0  0  0  0
   32.4783   33.0644   37.7964 C   0  0  0  0  0  0  0  0  0  0  0  0
   32.6884   34.5190   38.2069 C   0  0  0  0  0  0  0  0  0  0  0  0
   32.6058   31.9005   33.3653 C   0  0  0  0  0  0  0  0  0  0  0  0
   33.1895   31.5551   31.9880 C   0  0  0  0  0  0  0  0  0  0  0  0
   31.0686   31.9073   33.3039 C   0  0  0  0  0  0  0  0  0  0  0  0
  1  2  1  0
  2  3  2  0
  2  4  1  0
  4  5  2  0
  5  6  1  0
  6  7  2  0
  7  8  1  0
  8  9  2  0
  9 10  1  0
 10 11  2  0
 11 12  1  0
 12 13  2  0
 13 14  1  0
  9 15  1  0
 15 16  2  0
 15 17  2  0
 15 18  1  0
 18 19  1  1
 19 20  1  0
 20 21  1  0
 21 22  1  0
 18 23  1  0
 23 24  1  0
 23 25  1  0
 13  4  1  0
 12  7  1  0
M  END
>  <AAScore>  (1) 
-6.1775792892664905

>  <RootName>  (1) 
./4ZLY/04_DeltaGEst/trajectory_05/rank_01/lead_0313

$$$$
