confid_3
     RDKit          3D

 27 30  0  0  0  0  0  0  0  0999 V2000
   25.3300   26.2600   34.7600 N   0  0  0  0  0  0  0  0  0  0  0  0
   26.1200   25.9200   33.6900 C   0  0  0  0  0  0  0  0  0  0  0  0
   25.6300   25.1100   32.9400 O   0  0  0  0  0  0  0  0  0  0  0  0
   27.5200   26.3800   33.4600 C   0  0  0  0  0  0  0  0  0  0  0  0
   28.1600   26.6300   34.6100 N   0  0  0  0  0  0  0  0  0  0  0  0
   29.4800   26.8500   34.5700 N   0  0  0  0  0  0  0  0  0  0  0  0
   30.1900   26.7800   33.4400 C   0  0  0  0  0  0  0  0  0  0  0  0
   31.5600   27.0500   33.5000 C   0  0  0  0  0  0  0  0  0  0  0  0
   32.2700   27.2400   32.3100 C   0  0  0  0  0  0  0  0  0  0  0  0
   31.6100   27.2500   31.0800 C   0  0  0  0  0  0  0  0  0  0  0  0
   30.2700   26.8700   31.0600 C   0  0  0  0  0  0  0  0  0  0  0  0
   29.5100   26.6900   32.2300 C   0  0  0  0  0  0  0  0  0  0  0  0
   28.1400   26.4100   32.2000 C   0  0  0  0  0  0  0  0  0  0  0  0
   27.4300   26.1300   31.0500 N   0  0  0  0  0  0  0  0  0  0  0  0
   24.2017   25.5149   35.2552 C   0  0  0  0  0  0  0  0  0  0  0  0
   23.4391   26.0434   36.2490 N   0  0  0  0  0  0  0  0  0  0  0  0
   22.3773   25.3677   36.7582 C   0  0  0  0  0  0  0  0  0  0  0  0
   22.0467   24.1038   36.2599 C   0  0  0  0  0  0  0  0  0  0  0  0
   20.9154   23.3113   36.8672 C   0  0  0  0  0  0  0  0  0  0  0  0
   20.4799   22.2182   35.9714 N   0  0  0  0  0  0  0  0  0  0  0  0
   21.6335   21.3921   35.5564 C   0  0  0  0  0  0  0  0  0  0  0  0
   22.5507   22.2160   34.6506 C   0  0  0  0  0  0  0  0  0  0  0  0
   22.8626   23.5550   35.2565 C   0  0  0  0  0  0  0  0  0  0  0  0
   23.9075   24.2765   34.7720 N   0  0  0  0  0  0  0  0  0  0  0  0
   19.3451   21.4466   36.5477 C   0  0  0  0  0  0  0  0  0  0  0  0
   19.7691   20.3794   37.5769 C   0  0  0  0  0  0  0  0  0  0  0  0
   18.5083   20.8188   35.4271 C   0  0  0  0  0  0  0  0  0  0  0  0
  1  2  1  0
  2  3  2  0
  2  4  1  0
  4  5  2  0
  5  6  1  0
  6  7  2  0
  7  8  1  0
  8  9  2  0
  9 10  1  0
 10 11  2  0
 11 12  1  0
 12 13  2  0
 13 14  1  0
  1 15  1  0
 15 16  2  0
 16 17  1  0
 17 18  2  0
 18 19  1  0
 19 20  1  0
 20 21  1  0
 21 22  1  0
 22 23  1  0
 23 24  2  0
 20 25  1  0
 25 26  1  0
 25 27  1  0
 13  4  1  0
 24 15  1  0
 12  7  1  0
 23 18  1  0
M  END
>  <AAScore>  (1) 
3446.757200663122

>  <RootName>  (1) 
./4ZLY/04_DeltaGEst/trajectory_03/rank_00/lead_0149

$$$$
