confid_14
     RDKit          3D

 29 33  0  0  0  0  0  0  0  0999 V2000
   24.5500   26.3900   36.2500 N   0  0  0  0  0  0  0  0  0  0  0  0
   25.6000   26.1300   35.4000 C   0  0  0  0  0  0  0  0  0  0  0  0
   25.4300   25.4300   34.4200 O   0  0  0  0  0  0  0  0  0  0  0  0
   26.9800   26.6300   35.7100 C   0  0  0  0  0  0  0  0  0  0  0  0
   27.3200   26.8200   36.9800 N   0  0  0  0  0  0  0  0  0  0  0  0
   28.4700   27.4000   37.3100 N   0  0  0  0  0  0  0  0  0  0  0  0
   29.4000   27.6300   36.3700 C   0  0  0  0  0  0  0  0  0  0  0  0
   30.6600   28.0500   36.8000 C   0  0  0  0  0  0  0  0  0  0  0  0
   31.5700   28.3600   35.7800 C   0  0  0  0  0  0  0  0  0  0  0  0
   31.3700   28.1000   34.4300 C   0  0  0  0  0  0  0  0  0  0  0  0
   30.1200   27.5900   34.0500 C   0  0  0  0  0  0  0  0  0  0  0  0
   29.1500   27.3400   35.0300 C   0  0  0  0  0  0  0  0  0  0  0  0
   27.8800   26.8900   34.6600 C   0  0  0  0  0  0  0  0  0  0  0  0
   27.4800   26.6100   33.3700 N   0  0  0  0  0  0  0  0  0  0  0  0
   23.3163   25.6500   36.2810 C   0  0  0  0  0  0  0  0  0  0  0  0
   22.3043   26.1668   36.9249 N   0  0  0  0  0  0  0  0  0  0  0  0
   21.0233   25.5428   37.0618 C   0  0  0  0  0  0  0  0  0  0  0  0
   20.3464   25.1881   35.9793 C   0  0  0  0  0  0  0  0  0  0  0  0
   19.1548   24.3779   35.5668 C   0  0  0  0  0  0  0  0  0  0  0  0
   19.3963   24.4918   34.1987 O   0  0  0  0  0  0  0  0  0  0  0  0
   20.4699   25.3295   34.4903 C   0  0  2  0  0  0  0  0  0  0  0  0
   21.8045   24.8481   33.8829 C   0  0  0  0  0  0  0  0  0  0  0  0
   22.5604   23.8368   34.7289 C   0  0  0  0  0  0  0  0  0  0  0  0
   23.2853   24.2289   35.8127 C   0  0  0  0  0  0  0  0  0  0  0  0
   24.1235   23.2456   36.5982 C   0  0  0  0  0  0  0  0  0  0  0  0
   23.2637   22.1385   37.2189 C   0  0  0  0  0  0  0  0  0  0  0  0
   23.0252   21.0982   36.2919 O   0  0  0  0  0  0  0  0  0  0  0  0
   22.0090   21.4547   35.3760 C   0  0  0  0  0  0  0  0  0  0  0  0
   22.5445   22.3885   34.2819 C   0  0  0  0  0  0  0  0  0  0  0  0
  1  2  1  0
  2  3  2  0
  2  4  1  0
  4  5  2  0
  5  6  1  0
  6  7  2  0
  7  8  1  0
  8  9  2  0
  9 10  1  0
 10 11  2  0
 11 12  1  0
 12 13  2  0
 13 14  1  0
  1 15  1  0
 15 16  2  0
 16 17  1  0
 17 18  2  0
 18 19  1  0
 19 20  1  0
 20 21  1  0
 21 22  1  6
 22 23  1  0
 23 24  2  0
 24 25  1  0
 25 26  1  0
 26 27  1  0
 27 28  1  0
 28 29  1  0
 13  4  1  0
 24 15  1  0
 12  7  1  0
 21 18  1  0
 29 23  1  0
M  END
>  <AAScore>  (1) 
4421.056253192717

>  <RootName>  (1) 
./4ZLY/04_DeltaGEst/trajectory_01/rank_00/lead_0050

$$$$
