confid_6
     RDKit          3D

 30 33  0  0  0  0  0  0  0  0999 V2000
   25.3300   26.2600   34.7600 N   0  0  0  0  0  0  0  0  0  0  0  0
   26.1200   25.9200   33.6900 C   0  0  0  0  0  0  0  0  0  0  0  0
   25.6300   25.1100   32.9400 O   0  0  0  0  0  0  0  0  0  0  0  0
   27.5200   26.3800   33.4600 C   0  0  0  0  0  0  0  0  0  0  0  0
   28.1600   26.6300   34.6100 N   0  0  0  0  0  0  0  0  0  0  0  0
   29.4800   26.8500   34.5700 N   0  0  0  0  0  0  0  0  0  0  0  0
   30.1900   26.7800   33.4400 C   0  0  0  0  0  0  0  0  0  0  0  0
   31.5600   27.0500   33.5000 C   0  0  0  0  0  0  0  0  0  0  0  0
   32.2700   27.2400   32.3100 C   0  0  0  0  0  0  0  0  0  0  0  0
   31.6100   27.2500   31.0800 C   0  0  0  0  0  0  0  0  0  0  0  0
   30.2700   26.8700   31.0600 C   0  0  0  0  0  0  0  0  0  0  0  0
   29.5100   26.6900   32.2300 C   0  0  0  0  0  0  0  0  0  0  0  0
   28.1400   26.4100   32.2000 C   0  0  0  0  0  0  0  0  0  0  0  0
   27.4300   26.1300   31.0500 N   0  0  0  0  0  0  0  0  0  0  0  0
   27.5678   24.8099   30.4198 C   0  0  0  0  0  0  0  0  0  0  0  0
   26.5708   24.6270   29.2697 C   0  0  0  0  0  0  0  0  0  0  0  0
   26.5646   25.8086   28.3930 N   0  0  0  0  0  0  0  0  0  0  0  0
   26.3731   25.6639   26.9706 C   0  0  0  0  0  0  0  0  0  0  0  0
   26.6308   26.6200   26.0176 C   0  0  0  0  0  0  0  0  0  0  0  0
   26.2676   26.0641   24.8048 C   0  0  0  0  0  0  0  0  0  0  0  0
   26.4349   26.8159   23.5106 C   0  0  0  0  0  0  0  0  0  0  0  0
   27.6392   26.4574   22.8898 O   0  0  0  0  0  0  0  0  0  0  0  0
   25.8185   24.7819   24.9732 N   0  0  0  0  0  0  0  0  0  0  0  0
   25.8657   24.5620   26.3137 C   0  0  0  0  0  0  0  0  0  0  0  0
   25.2610   23.8326   23.9630 C   0  0  0  0  0  0  0  0  0  0  0  0
   23.8452   24.2840   23.5564 C   0  0  0  0  0  0  0  0  0  0  0  0
   25.1504   22.3982   24.5440 C   0  0  0  0  0  0  0  0  0  0  0  0
   26.1735   23.7410   22.7177 C   0  0  0  0  0  0  0  0  0  0  0  0
   26.6376   27.1611   28.9702 C   0  0  0  0  0  0  0  0  0  0  0  0
   26.5177   27.1342   30.4957 C   0  0  0  0  0  0  0  0  0  0  0  0
  1  2  1  0
  2  3  2  0
  2  4  1  0
  4  5  2  0
  5  6  1  0
  6  7  2  0
  7  8  1  0
  8  9  2  0
  9 10  1  0
 10 11  2  0
 11 12  1  0
 12 13  2  0
 13 14  1  0
 14 15  1  0
 15 16  1  0
 16 17  1  0
 17 18  1  0
 18 19  1  0
 19 20  2  0
 20 21  1  0
 21 22  1  0
 20 23  1  0
 23 24  1  0
 23 25  1  0
 25 26  1  0
 25 27  1  0
 25 28  1  0
 17 29  1  0
 29 30  1  0
 13  4  1  0
 30 14  1  0
 12  7  1  0
 24 18  2  0
M  END
>  <AAScore>  (1) 
11.413917668227848

>  <RootName>  (1) 
./4ZLY/04_DeltaGEst/trajectory_03/rank_01/lead_0161

$$$$
