confid_0
     RDKit          3D

 28 31  0  0  0  0  0  0  0  0999 V2000
   24.5500   26.3900   36.2500 N   0  0  0  0  0  0  0  0  0  0  0  0
   25.6000   26.1300   35.4000 C   0  0  0  0  0  0  0  0  0  0  0  0
   25.4300   25.4300   34.4200 O   0  0  0  0  0  0  0  0  0  0  0  0
   26.9800   26.6300   35.7100 C   0  0  0  0  0  0  0  0  0  0  0  0
   27.3200   26.8200   36.9800 N   0  0  0  0  0  0  0  0  0  0  0  0
   28.4700   27.4000   37.3100 N   0  0  0  0  0  0  0  0  0  0  0  0
   29.4000   27.6300   36.3700 C   0  0  0  0  0  0  0  0  0  0  0  0
   30.6600   28.0500   36.8000 C   0  0  0  0  0  0  0  0  0  0  0  0
   31.5700   28.3600   35.7800 C   0  0  0  0  0  0  0  0  0  0  0  0
   31.3700   28.1000   34.4300 C   0  0  0  0  0  0  0  0  0  0  0  0
   30.1200   27.5900   34.0500 C   0  0  0  0  0  0  0  0  0  0  0  0
   29.1500   27.3400   35.0300 C   0  0  0  0  0  0  0  0  0  0  0  0
   27.8800   26.8900   34.6600 C   0  0  0  0  0  0  0  0  0  0  0  0
   27.4800   26.6100   33.3700 N   0  0  0  0  0  0  0  0  0  0  0  0
   23.1932   25.8467   36.0776 C   0  0  1  0  0  0  0  0  0  0  0  0
   22.8697   24.9579   37.3035 C   0  0  0  0  0  0  0  0  0  0  0  0
   21.8273   23.8605   37.0356 C   0  0  0  0  0  0  0  0  0  0  0  0
   20.4497   24.3219   37.2846 N   0  0  0  0  0  0  0  0  0  0  0  0
   19.8634   25.4527   36.6049 C   0  0  0  0  0  0  0  0  0  0  0  0
   19.1813   26.2731   37.2807 O   0  0  0  0  0  0  0  0  0  0  0  0
   20.0368   25.7218   35.1116 C   0  0  1  0  0  0  0  0  0  0  0  0
   20.2915   24.4617   34.2625 C   0  0  0  0  0  0  0  0  0  0  0  0
   19.6595   24.5923   33.0075 O   0  0  0  0  0  0  0  0  0  0  0  0
   18.7850   25.6905   33.0817 C   0  0  0  0  0  0  0  0  0  0  0  0
   18.6953   26.1418   34.5206 C   0  0  0  0  0  0  0  0  0  0  0  0
   21.1180   26.8265   34.8395 C   0  0  0  0  0  0  0  0  0  0  0  0
   22.2034   27.0268   35.9191 C   0  0  0  0  0  0  0  0  0  0  0  0
   19.6514   23.6858   38.3384 C   0  0  0  0  0  0  0  0  0  0  0  0
  1  2  1  0
  2  3  2  0
  2  4  1  0
  4  5  2  0
  5  6  1  0
  6  7  2  0
  7  8  1  0
  8  9  2  0
  9 10  1  0
 10 11  2  0
 11 12  1  0
 12 13  2  0
 13 14  1  0
 15  1  1  1
 15 16  1  0
 16 17  1  0
 17 18  1  0
 18 19  1  0
 19 20  2  0
 19 21  1  0
 21 22  1  6
 22 23  1  0
 23 24  1  0
 24 25  1  0
 21 26  1  0
 26 27  1  0
 18 28  1  0
 13  4  1  0
 27 15  1  0
 12  7  1  0
 25 21  1  0
M  END
>  <AAScore>  (1) 
1293.6276813230784

>  <RootName>  (1) 
./4ZLY/04_DeltaGEst/trajectory_01/rank_00/lead_0336

$$$$
