confid_11
     RDKit          3D

 29 32  0  0  0  0  0  0  0  0999 V2000
   24.6900   26.1200   35.5300 N   0  0  0  0  0  0  0  0  0  0  0  0
   25.6600   25.6700   34.6600 C   0  0  0  0  0  0  0  0  0  0  0  0
   25.2400   25.0100   33.7200 O   0  0  0  0  0  0  0  0  0  0  0  0
   27.0300   26.2200   34.8800 C   0  0  0  0  0  0  0  0  0  0  0  0
   27.3500   26.7300   36.0700 N   0  0  0  0  0  0  0  0  0  0  0  0
   28.5700   27.1800   36.3300 N   0  0  0  0  0  0  0  0  0  0  0  0
   29.5300   27.1100   35.3900 C   0  0  0  0  0  0  0  0  0  0  0  0
   30.8300   27.5700   35.6500 C   0  0  0  0  0  0  0  0  0  0  0  0
   31.8500   27.5400   34.6900 C   0  0  0  0  0  0  0  0  0  0  0  0
   31.5100   27.1200   33.4000 C   0  0  0  0  0  0  0  0  0  0  0  0
   30.2200   26.6300   33.1100 C   0  0  0  0  0  0  0  0  0  0  0  0
   29.2400   26.6600   34.1000 C   0  0  0  0  0  0  0  0  0  0  0  0
   27.9300   26.2600   33.8100 C   0  0  0  0  0  0  0  0  0  0  0  0
   27.5200   25.7100   32.6100 N   0  0  0  0  0  0  0  0  0  0  0  0
   31.1456   28.0690   36.9589 N   0  0  0  0  0  0  0  0  0  0  0  0
   30.6340   29.3764   37.3883 C   0  0  0  0  0  0  0  0  0  0  0  0
   30.0787   29.2820   38.8155 C   0  0  0  0  0  0  0  0  0  0  0  0
   30.9465   28.4695   39.6837 N   0  0  0  0  0  0  0  0  0  0  0  0
   30.4793   28.0837   40.9901 C   0  0  0  0  0  0  0  0  0  0  0  0
   29.9716   29.0475   41.8757 C   0  0  0  0  0  0  0  0  0  0  0  0
   29.5072   28.6704   43.1379 C   0  0  0  0  0  0  0  0  0  0  0  0
   29.0258   29.6088   43.9899 F   0  0  0  0  0  0  0  0  0  0  0  0
   29.5397   27.3287   43.5248 C   0  0  0  0  0  0  0  0  0  0  0  0
   30.0334   26.3505   42.6547 C   0  0  0  0  0  0  0  0  0  0  0  0
   30.0387   25.0160   43.0874 O   0  0  0  0  0  0  0  0  0  0  0  0
   30.5106   23.9202   42.3101 C   0  0  0  0  0  0  0  0  0  0  0  0
   30.5022   26.7340   41.3829 C   0  0  0  0  0  0  0  0  0  0  0  0
   32.2384   27.9864   39.1780 C   0  0  0  0  0  0  0  0  0  0  0  0
   32.0344   27.2885   37.8309 C   0  0  0  0  0  0  0  0  0  0  0  0
  1  2  1  0
  2  3  2  0
  2  4  1  0
  4  5  2  0
  5  6  1  0
  6  7  2  0
  7  8  1  0
  8  9  2  0
  9 10  1  0
 10 11  2  0
 11 12  1  0
 12 13  2  0
 13 14  1  0
  8 15  1  0
 15 16  1  0
 16 17  1  0
 17 18  1  0
 18 19  1  0
 19 20  2  0
 20 21  1  0
 21 22  1  0
 21 23  2  0
 23 24  1  0
 24 25  1  0
 25 26  1  0
 24 27  2  0
 18 28  1  0
 28 29  1  0
 13  4  1  0
 29 15  1  0
 12  7  1  0
 27 19  1  0
M  END
>  <AAScore>  (1) 
40.13707700064749

>  <RootName>  (1) 
./4ZLY/04_DeltaGEst/trajectory_02/rank_01/lead_0026

$$$$
