confid_9
     RDKit          3D

 28 31  0  0  0  0  0  0  0  0999 V2000
   24.5500   26.3900   36.2500 N   0  0  0  0  0  0  0  0  0  0  0  0
   25.6000   26.1300   35.4000 C   0  0  0  0  0  0  0  0  0  0  0  0
   25.4300   25.4300   34.4200 O   0  0  0  0  0  0  0  0  0  0  0  0
   26.9800   26.6300   35.7100 C   0  0  0  0  0  0  0  0  0  0  0  0
   27.3200   26.8200   36.9800 N   0  0  0  0  0  0  0  0  0  0  0  0
   28.4700   27.4000   37.3100 N   0  0  0  0  0  0  0  0  0  0  0  0
   29.4000   27.6300   36.3700 C   0  0  0  0  0  0  0  0  0  0  0  0
   30.6600   28.0500   36.8000 C   0  0  0  0  0  0  0  0  0  0  0  0
   31.5700   28.3600   35.7800 C   0  0  0  0  0  0  0  0  0  0  0  0
   31.3700   28.1000   34.4300 C   0  0  0  0  0  0  0  0  0  0  0  0
   30.1200   27.5900   34.0500 C   0  0  0  0  0  0  0  0  0  0  0  0
   29.1500   27.3400   35.0300 C   0  0  0  0  0  0  0  0  0  0  0  0
   27.8800   26.8900   34.6600 C   0  0  0  0  0  0  0  0  0  0  0  0
   27.4800   26.6100   33.3700 N   0  0  0  0  0  0  0  0  0  0  0  0
   23.2273   25.7593   36.1085 C   0  0  0  0  0  0  0  0  0  0  0  0
   23.2765   24.3000   36.5958 C   0  0  0  0  0  0  0  0  0  0  0  0
   23.5571   24.2018   38.1138 C   0  0  0  0  0  0  0  0  0  0  0  0
   23.3610   25.4947   38.8090 N   0  0  0  0  0  0  0  0  0  0  0  0
   23.4099   25.3135   40.2732 C   0  0  0  0  0  0  0  0  0  0  0  0
   23.7671   26.6093   40.9376 C   0  0  0  0  0  0  0  0  0  0  0  0
   24.9395   27.2514   40.7903 N   0  0  0  0  0  0  0  0  0  0  0  0
   24.9251   28.3881   41.4688 N   0  0  0  0  0  0  0  0  0  0  0  0
   23.7179   28.4890   42.0660 C   0  0  0  0  0  0  0  0  0  0  0  0
   22.9612   27.3789   41.7462 C   0  0  0  0  0  0  0  0  0  0  0  0
   21.6901   27.1135   42.1360 F   0  0  0  0  0  0  0  0  0  0  0  0
   25.9887   26.8274   40.0533 F   0  0  0  0  0  0  0  0  0  0  0  0
   22.0925   26.1252   38.3870 C   0  0  0  0  0  0  0  0  0  0  0  0
   22.1589   26.5433   36.9038 C   0  0  0  0  0  0  0  0  0  0  0  0
  1  2  1  0
  2  3  2  0
  2  4  1  0
  4  5  2  0
  5  6  1  0
  6  7  2  0
  7  8  1  0
  8  9  2  0
  9 10  1  0
 10 11  2  0
 11 12  1  0
 12 13  2  0
 13 14  1  0
  1 15  1  0
 15 16  1  0
 16 17  1  0
 17 18  1  0
 18 19  1  0
 19 20  1  0
 20 21  1  0
 21 22  1  0
 22 23  2  0
 23 24  1  0
 24 25  1  0
 21 26  1  0
 18 27  1  0
 27 28  1  0
 13  4  1  0
 28 15  1  0
 12  7  1  0
 24 20  2  0
M  END
>  <AAScore>  (1) 
412.37842687387024

>  <RootName>  (1) 
./4ZLY/04_DeltaGEst/trajectory_01/rank_00/lead_0148

$$$$
