confid_1
     RDKit          3D

 27 30  0  0  0  0  0  0  0  0999 V2000
   24.2000   26.2400   35.6900 N   0  0  0  0  0  0  0  0  0  0  0  0
   24.8500   26.2800   34.4800 C   0  0  0  0  0  0  0  0  0  0  0  0
   24.3100   25.7400   33.5400 O   0  0  0  0  0  0  0  0  0  0  0  0
   26.1800   26.9700   34.4700 C   0  0  0  0  0  0  0  0  0  0  0  0
   26.6500   27.6000   35.5500 N   0  0  0  0  0  0  0  0  0  0  0  0
   27.7900   28.2700   35.6200 N   0  0  0  0  0  0  0  0  0  0  0  0
   28.5400   28.3000   34.5100 C   0  0  0  0  0  0  0  0  0  0  0  0
   29.7700   28.9400   34.5600 C   0  0  0  0  0  0  0  0  0  0  0  0
   30.7000   28.8900   33.5000 C   0  0  0  0  0  0  0  0  0  0  0  0
   30.3700   28.1400   32.3700 C   0  0  0  0  0  0  0  0  0  0  0  0
   29.1200   27.5200   32.2800 C   0  0  0  0  0  0  0  0  0  0  0  0
   28.2100   27.6100   33.3300 C   0  0  0  0  0  0  0  0  0  0  0  0
   26.9700   26.9700   33.3100 C   0  0  0  0  0  0  0  0  0  0  0  0
   26.5300   26.2400   32.2200 N   0  0  0  0  0  0  0  0  0  0  0  0
   22.7754   26.1193   35.8557 C   0  0  0  0  0  0  0  0  0  0  0  0
   22.2930   25.5672   37.0007 N   0  0  0  0  0  0  0  0  0  0  0  0
   20.9629   25.4402   37.2403 C   0  0  0  0  0  0  0  0  0  0  0  0
   20.0256   25.8911   36.2993 C   0  0  0  0  0  0  0  0  0  0  0  0
   18.5498   25.6822   36.5434 C   0  0  0  0  0  0  0  0  0  0  0  0
   17.8188   26.9929   36.6662 C   0  0  0  0  0  0  0  0  0  0  0  0
   16.9118   27.0976   37.4777 O   0  0  0  0  0  0  0  0  0  0  0  0
   18.1820   28.1798   35.8128 C   0  0  0  0  0  0  0  0  0  0  0  0
   18.5167   27.7747   34.4476 N   0  0  0  0  0  0  0  0  0  0  0  0
   19.5419   27.0453   34.1054 C   0  0  0  0  0  0  0  0  0  0  0  0
   20.4915   26.5073   35.1168 C   0  0  0  0  0  0  0  0  0  0  0  0
   21.8737   26.6157   34.8994 C   0  0  0  0  0  0  0  0  0  0  0  0
   19.7929   26.8091   32.6478 C   0  0  0  0  0  0  0  0  0  0  0  0
  1  2  1  0
  2  3  2  0
  2  4  1  0
  4  5  2  0
  5  6  1  0
  6  7  2  0
  7  8  1  0
  8  9  2  0
  9 10  1  0
 10 11  2  0
 11 12  1  0
 12 13  2  0
 13 14  1  0
  1 15  1  0
 15 16  2  0
 16 17  1  0
 17 18  2  0
 18 19  1  0
 19 20  1  0
 20 21  2  0
 20 22  1  0
 22 23  1  0
 23 24  2  0
 24 25  1  0
 25 26  2  0
 24 27  1  0
 13  4  1  0
 26 15  1  0
 12  7  1  0
 25 18  1  0
M  END
>  <AAScore>  (1) 
300.41989779857823

>  <RootName>  (1) 
./4ZLY/04_DeltaGEst/trajectory_04/rank_00/lead_0143

$$$$
