confid_4
     RDKit          3D

 28 31  0  0  0  0  0  0  0  0999 V2000
   24.2000   26.2400   35.6900 N   0  0  0  0  0  0  0  0  0  0  0  0
   24.8500   26.2800   34.4800 C   0  0  0  0  0  0  0  0  0  0  0  0
   24.3100   25.7400   33.5400 O   0  0  0  0  0  0  0  0  0  0  0  0
   26.1800   26.9700   34.4700 C   0  0  0  0  0  0  0  0  0  0  0  0
   26.6500   27.6000   35.5500 N   0  0  0  0  0  0  0  0  0  0  0  0
   27.7900   28.2700   35.6200 N   0  0  0  0  0  0  0  0  0  0  0  0
   28.5400   28.3000   34.5100 C   0  0  0  0  0  0  0  0  0  0  0  0
   29.7700   28.9400   34.5600 C   0  0  0  0  0  0  0  0  0  0  0  0
   30.7000   28.8900   33.5000 C   0  0  0  0  0  0  0  0  0  0  0  0
   30.3700   28.1400   32.3700 C   0  0  0  0  0  0  0  0  0  0  0  0
   29.1200   27.5200   32.2800 C   0  0  0  0  0  0  0  0  0  0  0  0
   28.2100   27.6100   33.3300 C   0  0  0  0  0  0  0  0  0  0  0  0
   26.9700   26.9700   33.3100 C   0  0  0  0  0  0  0  0  0  0  0  0
   26.5300   26.2400   32.2200 N   0  0  0  0  0  0  0  0  0  0  0  0
   22.7725   26.1512   35.8472 C   0  0  0  0  0  0  0  0  0  0  0  0
   22.2657   25.5878   36.9877 N   0  0  0  0  0  0  0  0  0  0  0  0
   20.9255   25.4941   37.2216 C   0  0  0  0  0  0  0  0  0  0  0  0
   20.0436   26.0002   36.2715 C   0  0  0  0  0  0  0  0  0  0  0  0
   18.5627   26.0278   36.3095 C   0  0  0  0  0  0  0  0  0  0  0  0
   18.2147   26.7092   35.0593 N   0  0  0  0  0  0  0  0  0  0  0  0
   16.8775   27.0404   34.6445 C   0  0  0  0  0  0  0  0  0  0  0  0
   16.7068   27.6813   33.5707 O   0  0  0  0  0  0  0  0  0  0  0  0
   15.6775   26.6979   35.4994 C   0  0  0  0  0  0  0  0  0  0  0  0
   15.2780   27.9078   36.3475 C   0  0  0  0  0  0  0  0  0  0  0  0
   14.4998   26.2253   34.6378 C   0  0  0  0  0  0  0  0  0  0  0  0
   19.4025   27.0757   34.2835 C   0  0  0  0  0  0  0  0  0  0  0  0
   20.5188   26.5854   35.1267 C   0  0  0  0  0  0  0  0  0  0  0  0
   21.8872   26.6861   34.8845 C   0  0  0  0  0  0  0  0  0  0  0  0
  1  2  1  0
  2  3  2  0
  2  4  1  0
  4  5  2  0
  5  6  1  0
  6  7  2  0
  7  8  1  0
  8  9  2  0
  9 10  1  0
 10 11  2  0
 11 12  1  0
 12 13  2  0
 13 14  1  0
  1 15  1  0
 15 16  2  0
 16 17  1  0
 17 18  2  0
 18 19  1  0
 19 20  1  0
 20 21  1  0
 21 22  2  0
 21 23  1  0
 23 24  1  0
 23 25  1  0
 20 26  1  0
 26 27  1  0
 27 28  2  0
 13  4  1  0
 28 15  1  0
 12  7  1  0
 27 18  1  0
M  END
>  <AAScore>  (1) 
676.5807976042064

>  <RootName>  (1) 
./4ZLY/04_DeltaGEst/trajectory_04/rank_00/lead_0131

$$$$
