confid_2
     RDKit          3D

 29 33  0  0  0  0  0  0  0  0999 V2000
   24.4800   26.1000   36.1300 N   0  0  0  0  0  0  0  0  0  0  0  0
   25.2500   26.2500   34.9900 C   0  0  0  0  0  0  0  0  0  0  0  0
   24.7400   25.7600   33.9900 O   0  0  0  0  0  0  0  0  0  0  0  0
   26.5900   26.8900   34.9600 C   0  0  0  0  0  0  0  0  0  0  0  0
   27.0600   27.2400   36.1600 N   0  0  0  0  0  0  0  0  0  0  0  0
   28.3000   27.7100   36.2400 N   0  0  0  0  0  0  0  0  0  0  0  0
   29.0500   27.9600   35.1500 C   0  0  0  0  0  0  0  0  0  0  0  0
   30.3400   28.4900   35.2600 C   0  0  0  0  0  0  0  0  0  0  0  0
   31.1100   28.8200   34.1400 C   0  0  0  0  0  0  0  0  0  0  0  0
   30.5200   28.6700   32.8800 C   0  0  0  0  0  0  0  0  0  0  0  0
   29.2900   28.0200   32.7700 C   0  0  0  0  0  0  0  0  0  0  0  0
   28.5200   27.7100   33.8900 C   0  0  0  0  0  0  0  0  0  0  0  0
   27.2700   27.0800   33.7600 C   0  0  0  0  0  0  0  0  0  0  0  0
   26.7500   26.8800   32.4900 N   0  0  0  0  0  0  0  0  0  0  0  0
   23.3473   25.2208   36.2668 C   0  0  0  0  0  0  0  0  0  0  0  0
   23.3086   24.1276   35.5564 N   0  0  0  0  0  0  0  0  0  0  0  0
   22.3282   23.0842   35.5257 C   0  0  0  0  0  0  0  0  0  0  0  0
   21.8882   22.5072   36.6351 C   0  0  0  0  0  0  0  0  0  0  0  0
   21.2240   21.2248   37.0388 C   0  0  0  0  0  0  0  0  0  0  0  0
   21.3585   21.4417   38.4067 O   0  0  0  0  0  0  0  0  0  0  0  0
   21.9345   22.6786   38.1238 C   0  0  2  0  0  0  0  0  0  0  0  0
   21.0180   23.8026   38.6155 C   0  0  0  0  0  0  0  0  0  0  0  0
   21.3143   25.1386   38.0138 C   0  0  0  0  0  0  0  0  0  0  0  0
   22.2237   25.6733   37.1187 C   0  0  0  0  0  0  0  0  0  0  0  0
   21.6043   26.9847   37.3281 C   0  0  0  0  0  0  0  0  0  0  0  0
   20.9608   27.5379   36.0468 C   0  0  0  0  0  0  0  0  0  0  0  0
   22.5221   28.0104   38.0153 C   0  0  0  0  0  0  0  0  0  0  0  0
   20.6372   26.4591   38.2322 C   0  0  0  0  0  0  0  0  0  0  0  0
   19.6671   26.8945   38.9064 O   0  0  0  0  0  0  0  0  0  0  0  0
  1  2  1  0
  2  3  2  0
  2  4  1  0
  4  5  2  0
  5  6  1  0
  6  7  2  0
  7  8  1  0
  8  9  2  0
  9 10  1  0
 10 11  2  0
 11 12  1  0
 12 13  2  0
 13 14  1  0
  1 15  1  0
 15 16  2  0
 16 17  1  0
 17 18  2  0
 18 19  1  0
 19 20  1  0
 20 21  1  0
 21 22  1  6
 22 23  1  0
 23 24  2  0
 24 25  1  0
 25 26  1  0
 25 27  1  0
 25 28  1  0
 28 29  2  0
 13  4  1  0
 24 15  1  0
 12  7  1  0
 21 18  1  0
 28 23  1  0
M  END
>  <AAScore>  (1) 
3255.4708811236987

>  <RootName>  (1) 
./4ZLY/04_DeltaGEst/trajectory_00/rank_01/lead_0472

$$$$
