confid_3
     RDKit          3D

 29 32  0  0  0  0  0  0  0  0999 V2000
   24.5500   26.3900   36.2500 N   0  0  0  0  0  0  0  0  0  0  0  0
   25.6000   26.1300   35.4000 C   0  0  0  0  0  0  0  0  0  0  0  0
   25.4300   25.4300   34.4200 O   0  0  0  0  0  0  0  0  0  0  0  0
   26.9800   26.6300   35.7100 C   0  0  0  0  0  0  0  0  0  0  0  0
   27.3200   26.8200   36.9800 N   0  0  0  0  0  0  0  0  0  0  0  0
   28.4700   27.4000   37.3100 N   0  0  0  0  0  0  0  0  0  0  0  0
   29.4000   27.6300   36.3700 C   0  0  0  0  0  0  0  0  0  0  0  0
   30.6600   28.0500   36.8000 C   0  0  0  0  0  0  0  0  0  0  0  0
   31.5700   28.3600   35.7800 C   0  0  0  0  0  0  0  0  0  0  0  0
   31.3700   28.1000   34.4300 C   0  0  0  0  0  0  0  0  0  0  0  0
   30.1200   27.5900   34.0500 C   0  0  0  0  0  0  0  0  0  0  0  0
   29.1500   27.3400   35.0300 C   0  0  0  0  0  0  0  0  0  0  0  0
   27.8800   26.8900   34.6600 C   0  0  0  0  0  0  0  0  0  0  0  0
   27.4800   26.6100   33.3700 N   0  0  0  0  0  0  0  0  0  0  0  0
   23.5615   25.3595   36.6191 C   0  0  0  0  0  0  0  0  0  0  0  0
   22.8946   25.6963   37.9741 C   0  0  0  0  0  0  0  0  0  0  0  0
   21.9351   26.8872   37.8552 C   0  0  0  0  0  0  0  0  0  0  0  0
   20.9815   26.6480   36.7725 N   0  0  0  0  0  0  0  0  0  0  0  0
   19.5938   26.4479   37.0775 C   0  0  0  0  0  0  0  0  0  0  0  0
   18.5958   27.3266   36.5973 C   0  0  0  0  0  0  0  0  0  0  0  0
   18.9163   28.5431   35.7549 C   0  0  0  0  0  0  0  0  0  0  0  0
   18.0327   28.6605   34.6520 O   0  0  0  0  0  0  0  0  0  0  0  0
   18.4473   27.8057   33.6036 C   0  0  0  0  0  0  0  0  0  0  0  0
   17.2697   27.1182   37.0073 C   0  0  0  0  0  0  0  0  0  0  0  0
   16.9525   26.0502   37.8456 C   0  0  0  0  0  0  0  0  0  0  0  0
   17.9660   25.1945   38.2762 C   0  0  0  0  0  0  0  0  0  0  0  0
   19.2482   25.4165   37.8957 N   0  0  0  0  0  0  0  0  0  0  0  0
   21.5128   26.3396   35.4333 C   0  0  0  0  0  0  0  0  0  0  0  0
   22.4912   25.1567   35.5185 C   0  0  0  0  0  0  0  0  0  0  0  0
  1  2  1  0
  2  3  2  0
  2  4  1  0
  4  5  2  0
  5  6  1  0
  6  7  2  0
  7  8  1  0
  8  9  2  0
  9 10  1  0
 10 11  2  0
 11 12  1  0
 12 13  2  0
 13 14  1  0
  1 15  1  0
 15 16  1  0
 16 17  1  0
 17 18  1  0
 18 19  1  0
 19 20  2  0
 20 21  1  0
 21 22  1  0
 22 23  1  0
 20 24  1  0
 24 25  2  0
 25 26  1  0
 26 27  2  0
 18 28  1  0
 28 29  1  0
 13  4  1  0
 29 15  1  0
 12  7  1  0
 27 19  1  0
M  END
>  <AAScore>  (1) 
757.0432937463086

>  <RootName>  (1) 
./4ZLY/04_DeltaGEst/trajectory_01/rank_00/lead_0196

$$$$
