confid_0
     RDKit          3D

 27 30  0  0  0  0  0  0  0  0999 V2000
   25.3300   26.2600   34.7600 N   0  0  0  0  0  0  0  0  0  0  0  0
   26.1200   25.9200   33.6900 C   0  0  0  0  0  0  0  0  0  0  0  0
   25.6300   25.1100   32.9400 O   0  0  0  0  0  0  0  0  0  0  0  0
   27.5200   26.3800   33.4600 C   0  0  0  0  0  0  0  0  0  0  0  0
   28.1600   26.6300   34.6100 N   0  0  0  0  0  0  0  0  0  0  0  0
   29.4800   26.8500   34.5700 N   0  0  0  0  0  0  0  0  0  0  0  0
   30.1900   26.7800   33.4400 C   0  0  0  0  0  0  0  0  0  0  0  0
   31.5600   27.0500   33.5000 C   0  0  0  0  0  0  0  0  0  0  0  0
   32.2700   27.2400   32.3100 C   0  0  0  0  0  0  0  0  0  0  0  0
   31.6100   27.2500   31.0800 C   0  0  0  0  0  0  0  0  0  0  0  0
   30.2700   26.8700   31.0600 C   0  0  0  0  0  0  0  0  0  0  0  0
   29.5100   26.6900   32.2300 C   0  0  0  0  0  0  0  0  0  0  0  0
   28.1400   26.4100   32.2000 C   0  0  0  0  0  0  0  0  0  0  0  0
   27.4300   26.1300   31.0500 N   0  0  0  0  0  0  0  0  0  0  0  0
   23.9164   25.9969   34.8611 C   0  0  0  0  0  0  0  0  0  0  0  0
   23.1405   25.6346   33.8234 N   0  0  0  0  0  0  0  0  0  0  0  0
   21.8979   25.5541   34.3464 C   0  0  0  0  0  0  0  0  0  0  0  0
   20.7158   25.2589   33.4776 C   0  0  0  0  0  0  0  0  0  0  0  0
   20.2499   26.5207   32.8617 N   0  0  0  0  0  0  0  0  0  0  0  0
   19.8530   26.2962   31.4611 C   0  0  0  0  0  0  0  0  0  0  0  0
   19.1269   27.1350   33.6019 C   0  0  0  0  0  0  0  0  0  0  0  0
   19.5215   27.5764   35.0258 C   0  0  0  0  0  0  0  0  0  0  0  0
   19.3872   26.4383   36.0605 C   0  0  0  0  0  0  0  0  0  0  0  0
   20.7158   25.8687   36.5997 C   0  0  0  0  0  0  0  0  0  0  0  0
   21.8517   25.9029   35.6599 N   0  0  0  0  0  0  0  0  0  0  0  0
   23.1411   26.1439   35.9945 C   0  0  0  0  0  0  0  0  0  0  0  0
   23.6247   26.5226   37.3662 C   0  0  0  0  0  0  0  0  0  0  0  0
  1  2  1  0
  2  3  2  0
  2  4  1  0
  4  5  2  0
  5  6  1  0
  6  7  2  0
  7  8  1  0
  8  9  2  0
  9 10  1  0
 10 11  2  0
 11 12  1  0
 12 13  2  0
 13 14  1  0
  1 15  1  0
 15 16  1  0
 16 17  2  0
 17 18  1  0
 18 19  1  0
 19 20  1  0
 19 21  1  0
 21 22  1  0
 22 23  1  0
 23 24  1  0
 24 25  1  0
 25 26  1  0
 26 27  1  0
 13  4  1  0
 26 15  2  0
 12  7  1  0
 25 17  1  0
M  END
>  <AAScore>  (1) 
2699.590953548024

>  <RootName>  (1) 
./4ZLY/04_DeltaGEst/trajectory_03/rank_00/lead_0071

$$$$
