confid_0
     RDKit          3D

 28 31  0  0  0  0  0  0  0  0999 V2000
   25.3300   26.2600   34.7600 N   0  0  0  0  0  0  0  0  0  0  0  0
   26.1200   25.9200   33.6900 C   0  0  0  0  0  0  0  0  0  0  0  0
   25.6300   25.1100   32.9400 O   0  0  0  0  0  0  0  0  0  0  0  0
   27.5200   26.3800   33.4600 C   0  0  0  0  0  0  0  0  0  0  0  0
   28.1600   26.6300   34.6100 N   0  0  0  0  0  0  0  0  0  0  0  0
   29.4800   26.8500   34.5700 N   0  0  0  0  0  0  0  0  0  0  0  0
   30.1900   26.7800   33.4400 C   0  0  0  0  0  0  0  0  0  0  0  0
   31.5600   27.0500   33.5000 C   0  0  0  0  0  0  0  0  0  0  0  0
   32.2700   27.2400   32.3100 C   0  0  0  0  0  0  0  0  0  0  0  0
   31.6100   27.2500   31.0800 C   0  0  0  0  0  0  0  0  0  0  0  0
   30.2700   26.8700   31.0600 C   0  0  0  0  0  0  0  0  0  0  0  0
   29.5100   26.6900   32.2300 C   0  0  0  0  0  0  0  0  0  0  0  0
   28.1400   26.4100   32.2000 C   0  0  0  0  0  0  0  0  0  0  0  0
   27.4300   26.1300   31.0500 N   0  0  0  0  0  0  0  0  0  0  0  0
   23.8916   26.2014   34.7845 C   0  0  0  0  0  0  0  0  0  0  0  0
   23.2602   26.0142   35.9736 N   0  0  0  0  0  0  0  0  0  0  0  0
   21.9063   25.9740   36.0774 C   0  0  0  0  0  0  0  0  0  0  0  0
   21.0971   26.1295   34.9413 C   0  0  0  0  0  0  0  0  0  0  0  0
   19.5884   26.0737   35.1138 C   0  0  0  0  0  0  0  0  0  0  0  0
   18.8775   25.6026   33.9066 N   0  0  0  0  0  0  0  0  0  0  0  0
   17.4278   25.5527   34.1534 C   0  0  0  0  0  0  0  0  0  0  0  0
   19.3911   24.3040   33.4091 C   0  0  0  0  0  0  0  0  0  0  0  0
   19.9613   24.4831   32.0298 C   0  0  0  0  0  0  0  0  0  0  0  0
   20.6187   25.5454   31.6566 N   0  0  0  0  0  0  0  0  0  0  0  0
   20.9613   26.6152   32.5070 N   0  0  0  0  0  0  0  0  0  0  0  0
   21.7258   26.3707   33.6984 C   0  0  0  0  0  0  0  0  0  0  0  0
   23.1252   26.4052   33.6268 C   0  0  0  0  0  0  0  0  0  0  0  0
   20.9904   27.9566   31.9334 C   0  0  0  0  0  0  0  0  0  0  0  0
  1  2  1  0
  2  3  2  0
  2  4  1  0
  4  5  2  0
  5  6  1  0
  6  7  2  0
  7  8  1  0
  8  9  2  0
  9 10  1  0
 10 11  2  0
 11 12  1  0
 12 13  2  0
 13 14  1  0
  1 15  1  0
 15 16  2  0
 16 17  1  0
 17 18  2  0
 18 19  1  0
 19 20  1  0
 20 21  1  0
 20 22  1  0
 22 23  1  0
 23 24  2  0
 24 25  1  0
 25 26  1  0
 26 27  2  0
 25 28  1  0
 13  4  1  0
 27 15  1  0
 12  7  1  0
 26 18  1  0
M  END
>  <AAScore>  (1) 
7240.510696770799

>  <RootName>  (1) 
./4ZLY/04_DeltaGEst/trajectory_03/rank_00/lead_0485

$$$$
