confid_1
     RDKit          3D

 29 32  0  0  0  0  0  0  0  0999 V2000
   25.3300   26.2600   34.7600 N   0  0  0  0  0  0  0  0  0  0  0  0
   26.1200   25.9200   33.6900 C   0  0  0  0  0  0  0  0  0  0  0  0
   25.6300   25.1100   32.9400 O   0  0  0  0  0  0  0  0  0  0  0  0
   27.5200   26.3800   33.4600 C   0  0  0  0  0  0  0  0  0  0  0  0
   28.1600   26.6300   34.6100 N   0  0  0  0  0  0  0  0  0  0  0  0
   29.4800   26.8500   34.5700 N   0  0  0  0  0  0  0  0  0  0  0  0
   30.1900   26.7800   33.4400 C   0  0  0  0  0  0  0  0  0  0  0  0
   31.5600   27.0500   33.5000 C   0  0  0  0  0  0  0  0  0  0  0  0
   32.2700   27.2400   32.3100 C   0  0  0  0  0  0  0  0  0  0  0  0
   31.6100   27.2500   31.0800 C   0  0  0  0  0  0  0  0  0  0  0  0
   30.2700   26.8700   31.0600 C   0  0  0  0  0  0  0  0  0  0  0  0
   29.5100   26.6900   32.2300 C   0  0  0  0  0  0  0  0  0  0  0  0
   28.1400   26.4100   32.2000 C   0  0  0  0  0  0  0  0  0  0  0  0
   27.4300   26.1300   31.0500 N   0  0  0  0  0  0  0  0  0  0  0  0
   27.5467   24.8168   30.4084 C   0  0  0  0  0  0  0  0  0  0  0  0
   27.5628   24.9764   28.8858 C   0  0  0  0  0  0  0  0  0  0  0  0
   26.4162   25.7982   28.4387 N   0  0  0  0  0  0  0  0  0  0  0  0
   26.3832   25.8881   26.9646 C   0  0  0  0  0  0  0  0  0  0  0  0
   25.8909   24.5988   26.3710 C   0  0  0  0  0  0  0  0  0  0  0  0
   24.6098   24.2023   26.6051 N   0  0  0  0  0  0  0  0  0  0  0  0
   24.1100   23.0347   26.1142 C   0  0  0  0  0  0  0  0  0  0  0  0
   22.6768   22.6772   26.3858 C   0  0  0  0  0  0  0  0  0  0  0  0
   21.7748   23.1698   25.2594 C   0  0  0  0  0  0  0  0  0  0  0  0
   24.9272   22.2104   25.3237 C   0  0  0  0  0  0  0  0  0  0  0  0
   24.4528   21.0511   24.8014 F   0  0  0  0  0  0  0  0  0  0  0  0
   26.2460   22.5938   25.0732 C   0  0  0  0  0  0  0  0  0  0  0  0
   26.7361   23.7900   25.5985 C   0  0  0  0  0  0  0  0  0  0  0  0
   26.5071   27.1513   29.0250 C   0  0  0  0  0  0  0  0  0  0  0  0
   26.4268   27.0737   30.5503 C   0  0  0  0  0  0  0  0  0  0  0  0
  1  2  1  0
  2  3  2  0
  2  4  1  0
  4  5  2  0
  5  6  1  0
  6  7  2  0
  7  8  1  0
  8  9  2  0
  9 10  1  0
 10 11  2  0
 11 12  1  0
 12 13  2  0
 13 14  1  0
 14 15  1  0
 15 16  1  0
 16 17  1  0
 17 18  1  0
 18 19  1  0
 19 20  2  0
 20 21  1  0
 21 22  1  0
 22 23  1  0
 21 24  2  0
 24 25  1  0
 24 26  1  0
 26 27  2  0
 17 28  1  0
 28 29  1  0
 13  4  1  0
 29 14  1  0
 12  7  1  0
 27 19  1  0
M  END
>  <AAScore>  (1) 
20.539685196916896

>  <RootName>  (1) 
./4ZLY/04_DeltaGEst/trajectory_03/rank_01/lead_0399

$$$$
