confid_6
     RDKit          3D

 27 31  0  0  0  0  0  0  0  0999 V2000
   24.4800   26.1000   36.1300 N   0  0  0  0  0  0  0  0  0  0  0  0
   25.2500   26.2500   34.9900 C   0  0  0  0  0  0  0  0  0  0  0  0
   24.7400   25.7600   33.9900 O   0  0  0  0  0  0  0  0  0  0  0  0
   26.5900   26.8900   34.9600 C   0  0  0  0  0  0  0  0  0  0  0  0
   27.0600   27.2400   36.1600 N   0  0  0  0  0  0  0  0  0  0  0  0
   28.3000   27.7100   36.2400 N   0  0  0  0  0  0  0  0  0  0  0  0
   29.0500   27.9600   35.1500 C   0  0  0  0  0  0  0  0  0  0  0  0
   30.3400   28.4900   35.2600 C   0  0  0  0  0  0  0  0  0  0  0  0
   31.1100   28.8200   34.1400 C   0  0  0  0  0  0  0  0  0  0  0  0
   30.5200   28.6700   32.8800 C   0  0  0  0  0  0  0  0  0  0  0  0
   29.2900   28.0200   32.7700 C   0  0  0  0  0  0  0  0  0  0  0  0
   28.5200   27.7100   33.8900 C   0  0  0  0  0  0  0  0  0  0  0  0
   27.2700   27.0800   33.7600 C   0  0  0  0  0  0  0  0  0  0  0  0
   26.7500   26.8800   32.4900 N   0  0  0  0  0  0  0  0  0  0  0  0
   23.0464   26.2535   36.1390 C   0  0  0  0  0  0  0  0  0  0  0  0
   22.5132   26.9003   35.1290 N   0  0  0  0  0  0  0  0  0  0  0  0
   21.2221   27.3069   34.6436 C   0  0  0  0  0  0  0  0  0  0  0  0
   20.0986   27.2421   35.3207 C   0  0  0  0  0  0  0  0  0  0  0  0
   18.7216   27.8231   35.2484 C   0  0  0  0  0  0  0  0  0  0  0  0
   18.2996   27.3216   36.4783 O   0  0  0  0  0  0  0  0  0  0  0  0
   19.5294   26.6632   36.5680 C   0  0  2  0  0  0  0  0  0  0  0  0
   20.3747   27.0845   37.7557 C   0  0  0  0  0  0  0  0  0  0  0  0
   21.3133   25.9580   38.0127 C   0  0  0  0  0  0  0  0  0  0  0  0
   22.3474   25.5802   37.2576 C   0  0  0  0  0  0  0  0  0  0  0  0
   22.8075   24.3501   37.6832 O   0  0  0  0  0  0  0  0  0  0  0  0
   22.0379   23.8273   38.7553 C   0  0  0  0  0  0  0  0  0  0  0  0
   21.0143   24.9245   39.0573 C   0  0  0  0  0  0  0  0  0  0  0  0
  1  2  1  0
  2  3  2  0
  2  4  1  0
  4  5  2  0
  5  6  1  0
  6  7  2  0
  7  8  1  0
  8  9  2  0
  9 10  1  0
 10 11  2  0
 11 12  1  0
 12 13  2  0
 13 14  1  0
  1 15  1  0
 15 16  2  0
 16 17  1  0
 17 18  2  0
 18 19  1  0
 19 20  1  0
 20 21  1  0
 21 22  1  1
 22 23  1  0
 23 24  2  0
 24 25  1  0
 25 26  1  0
 26 27  1  0
 13  4  1  0
 24 15  1  0
 12  7  1  0
 21 18  1  0
 27 23  1  0
M  END
>  <AAScore>  (1) 
442.814357461011

>  <RootName>  (1) 
./4ZLY/04_DeltaGEst/trajectory_00/rank_01/lead_0079

$$$$
