confid_10
     RDKit          3D

 30 33  0  0  0  0  0  0  0  0999 V2000
   24.5500   26.3900   36.2500 N   0  0  0  0  0  0  0  0  0  0  0  0
   25.6000   26.1300   35.4000 C   0  0  0  0  0  0  0  0  0  0  0  0
   25.4300   25.4300   34.4200 O   0  0  0  0  0  0  0  0  0  0  0  0
   26.9800   26.6300   35.7100 C   0  0  0  0  0  0  0  0  0  0  0  0
   27.3200   26.8200   36.9800 N   0  0  0  0  0  0  0  0  0  0  0  0
   28.4700   27.4000   37.3100 N   0  0  0  0  0  0  0  0  0  0  0  0
   29.4000   27.6300   36.3700 C   0  0  0  0  0  0  0  0  0  0  0  0
   30.6600   28.0500   36.8000 C   0  0  0  0  0  0  0  0  0  0  0  0
   31.5700   28.3600   35.7800 C   0  0  0  0  0  0  0  0  0  0  0  0
   31.3700   28.1000   34.4300 C   0  0  0  0  0  0  0  0  0  0  0  0
   30.1200   27.5900   34.0500 C   0  0  0  0  0  0  0  0  0  0  0  0
   29.1500   27.3400   35.0300 C   0  0  0  0  0  0  0  0  0  0  0  0
   27.8800   26.8900   34.6600 C   0  0  0  0  0  0  0  0  0  0  0  0
   27.4800   26.6100   33.3700 N   0  0  0  0  0  0  0  0  0  0  0  0
   31.0024   28.3023   38.2144 C   0  0  0  0  0  0  0  0  0  0  0  0
   32.0300   27.6901   38.8979 C   0  0  0  0  0  0  0  0  0  0  0  0
   31.9692   28.1564   40.1983 C   0  0  0  0  0  0  0  0  0  0  0  0
   32.9142   27.7074   41.2883 C   0  0  0  0  0  0  0  0  0  0  0  0
   32.2273   27.2037   42.5863 C   0  0  1  0  0  0  0  0  0  0  0  0
   30.7832   26.9061   42.4162 N   0  0  0  0  0  0  0  0  0  0  0  0
   30.2591   25.8783   41.5328 C   0  0  0  0  0  0  0  0  0  0  0  0
   29.0265   25.8594   41.2645 O   0  0  0  0  0  0  0  0  0  0  0  0
   31.1092   24.7891   40.9517 C   0  0  0  0  0  0  0  0  0  0  0  0
   29.8264   27.7871   43.1093 C   0  0  0  0  0  0  0  0  0  0  0  0
   29.3556   28.9359   42.2053 C   0  0  0  0  0  0  0  0  0  0  0  0
   30.5109   29.7214   41.5581 C   0  0  0  0  0  0  0  0  0  0  0  0
   30.9648   29.0611   40.3260 N   0  0  0  0  0  0  0  0  0  0  0  0
   30.3727   29.1555   39.1097 C   0  0  0  0  0  0  0  0  0  0  0  0
   29.2188   30.0657   38.7914 C   0  0  0  0  0  0  0  0  0  0  0  0
   32.9817   26.0431   43.2512 C   0  0  0  0  0  0  0  0  0  0  0  0
  1  2  1  0
  2  3  2  0
  2  4  1  0
  4  5  2  0
  5  6  1  0
  6  7  2  0
  7  8  1  0
  8  9  2  0
  9 10  1  0
 10 11  2  0
 11 12  1  0
 12 13  2  0
 13 14  1  0
  8 15  1  0
 15 16  1  0
 16 17  2  0
 17 18  1  0
 18 19  1  0
 19 20  1  0
 20 21  1  0
 21 22  2  0
 21 23  1  0
 20 24  1  0
 24 25  1  0
 25 26  1  0
 26 27  1  0
 27 28  1  0
 28 29  1  0
 19 30  1  6
 13  4  1  0
 28 15  2  0
 12  7  1  0
 27 17  1  0
M  END
>  <AAScore>  (1) 
48.92634706176943

>  <RootName>  (1) 
./4ZLY/04_DeltaGEst/trajectory_01/rank_01/lead_0167

$$$$
