confid_4
     RDKit          3D

 28 31  0  0  0  0  0  0  0  0999 V2000
   24.6900   26.1200   35.5300 N   0  0  0  0  0  0  0  0  0  0  0  0
   25.6600   25.6700   34.6600 C   0  0  0  0  0  0  0  0  0  0  0  0
   25.2400   25.0100   33.7200 O   0  0  0  0  0  0  0  0  0  0  0  0
   27.0300   26.2200   34.8800 C   0  0  0  0  0  0  0  0  0  0  0  0
   27.3500   26.7300   36.0700 N   0  0  0  0  0  0  0  0  0  0  0  0
   28.5700   27.1800   36.3300 N   0  0  0  0  0  0  0  0  0  0  0  0
   29.5300   27.1100   35.3900 C   0  0  0  0  0  0  0  0  0  0  0  0
   30.8300   27.5700   35.6500 C   0  0  0  0  0  0  0  0  0  0  0  0
   31.8500   27.5400   34.6900 C   0  0  0  0  0  0  0  0  0  0  0  0
   31.5100   27.1200   33.4000 C   0  0  0  0  0  0  0  0  0  0  0  0
   30.2200   26.6300   33.1100 C   0  0  0  0  0  0  0  0  0  0  0  0
   29.2400   26.6600   34.1000 C   0  0  0  0  0  0  0  0  0  0  0  0
   27.9300   26.2600   33.8100 C   0  0  0  0  0  0  0  0  0  0  0  0
   27.5200   25.7100   32.6100 N   0  0  0  0  0  0  0  0  0  0  0  0
   31.1475   28.0664   36.9620 N   0  0  0  0  0  0  0  0  0  0  0  0
   30.5503   29.3124   37.4467 C   0  0  0  0  0  0  0  0  0  0  0  0
   29.9218   29.1164   38.8377 C   0  0  0  0  0  0  0  0  0  0  0  0
   30.6386   28.0408   39.7329 C   0  0  0  0  0  0  0  0  0  0  0  0
   29.8444   26.6998   39.6666 C   0  0  0  0  0  0  0  0  0  0  0  0
   30.2725   25.7761   40.7105 N   0  0  0  0  0  0  0  0  0  0  0  0
   29.8163   25.8871   42.0666 C   0  0  0  0  0  0  0  0  0  0  0  0
   29.9660   24.8997   42.8364 O   0  0  0  0  0  0  0  0  0  0  0  0
   29.1844   27.0899   42.5658 N   0  0  0  0  0  0  0  0  0  0  0  0
   28.2579   26.9633   43.6941 C   0  0  0  0  0  0  0  0  0  0  0  0
   29.3852   28.4268   41.9739 C   0  0  0  0  0  0  0  0  0  0  0  0
   30.7141   28.5489   41.2075 C   0  0  0  0  0  0  0  0  0  0  0  0
   32.1007   27.8215   39.2398 C   0  0  0  0  0  0  0  0  0  0  0  0
   32.1823   27.4032   37.7616 C   0  0  0  0  0  0  0  0  0  0  0  0
  1  2  1  0
  2  3  2  0
  2  4  1  0
  4  5  2  0
  5  6  1  0
  6  7  2  0
  7  8  1  0
  8  9  2  0
  9 10  1  0
 10 11  2  0
 11 12  1  0
 12 13  2  0
 13 14  1  0
  8 15  1  0
 15 16  1  0
 16 17  1  0
 17 18  1  0
 18 19  1  0
 19 20  1  0
 20 21  1  0
 21 22  2  0
 21 23  1  0
 23 24  1  0
 23 25  1  0
 25 26  1  0
 18 27  1  0
 27 28  1  0
 13  4  1  0
 28 15  1  0
 12  7  1  0
 26 18  1  0
M  END
>  <AAScore>  (1) 
10.393704875559845

>  <RootName>  (1) 
./4ZLY/04_DeltaGEst/trajectory_02/rank_01/lead_0054

$$$$
