confid_13
     RDKit          3D

 28 31  0  0  0  0  0  0  0  0999 V2000
   25.3300   26.2600   34.7600 N   0  0  0  0  0  0  0  0  0  0  0  0
   26.1200   25.9200   33.6900 C   0  0  0  0  0  0  0  0  0  0  0  0
   25.6300   25.1100   32.9400 O   0  0  0  0  0  0  0  0  0  0  0  0
   27.5200   26.3800   33.4600 C   0  0  0  0  0  0  0  0  0  0  0  0
   28.1600   26.6300   34.6100 N   0  0  0  0  0  0  0  0  0  0  0  0
   29.4800   26.8500   34.5700 N   0  0  0  0  0  0  0  0  0  0  0  0
   30.1900   26.7800   33.4400 C   0  0  0  0  0  0  0  0  0  0  0  0
   31.5600   27.0500   33.5000 C   0  0  0  0  0  0  0  0  0  0  0  0
   32.2700   27.2400   32.3100 C   0  0  0  0  0  0  0  0  0  0  0  0
   31.6100   27.2500   31.0800 C   0  0  0  0  0  0  0  0  0  0  0  0
   30.2700   26.8700   31.0600 C   0  0  0  0  0  0  0  0  0  0  0  0
   29.5100   26.6900   32.2300 C   0  0  0  0  0  0  0  0  0  0  0  0
   28.1400   26.4100   32.2000 C   0  0  0  0  0  0  0  0  0  0  0  0
   27.4300   26.1300   31.0500 N   0  0  0  0  0  0  0  0  0  0  0  0
   27.5801   24.8131   30.4111 C   0  0  0  0  0  0  0  0  0  0  0  0
   26.6629   24.6782   29.1925 C   0  0  0  0  0  0  0  0  0  0  0  0
   26.7508   25.8871   28.3652 N   0  0  0  0  0  0  0  0  0  0  0  0
   26.8928   25.7758   26.9406 C   0  0  0  0  0  0  0  0  0  0  0  0
   28.0882   26.1748   26.3307 C   0  0  0  0  0  0  0  0  0  0  0  0
   28.2445   26.0578   24.9499 C   0  0  0  0  0  0  0  0  0  0  0  0
   27.1973   25.5400   24.1799 C   0  0  0  0  0  0  0  0  0  0  0  0
   27.3447   25.4071   22.7597 N   0  0  0  0  0  0  0  0  0  0  0  0
   26.2779   24.8731   21.9221 C   0  0  0  0  0  0  0  0  0  0  0  0
   26.0383   25.1652   24.7889 N   0  0  0  0  0  0  0  0  0  0  0  0
   25.8511   25.2745   26.1329 C   0  0  0  0  0  0  0  0  0  0  0  0
   24.5408   24.8419   26.7178 C   0  0  0  0  0  0  0  0  0  0  0  0
   26.6991   27.2225   28.9762 C   0  0  0  0  0  0  0  0  0  0  0  0
   26.5168   27.1362   30.4945 C   0  0  0  0  0  0  0  0  0  0  0  0
  1  2  1  0
  2  3  2  0
  2  4  1  0
  4  5  2  0
  5  6  1  0
  6  7  2  0
  7  8  1  0
  8  9  2  0
  9 10  1  0
 10 11  2  0
 11 12  1  0
 12 13  2  0
 13 14  1  0
 14 15  1  0
 15 16  1  0
 16 17  1  0
 17 18  1  0
 18 19  2  0
 19 20  1  0
 20 21  2  0
 21 22  1  0
 22 23  1  0
 21 24  1  0
 24 25  2  0
 25 26  1  0
 17 27  1  0
 27 28  1  0
 13  4  1  0
 28 14  1  0
 12  7  1  0
 25 18  1  0
M  END
>  <AAScore>  (1) 
39.31894077571801

>  <RootName>  (1) 
./4ZLY/04_DeltaGEst/trajectory_03/rank_01/lead_0126

$$$$
