confid_2
     RDKit          3D

 29 32  0  0  0  0  0  0  0  0999 V2000
   25.3300   26.2600   34.7600 N   0  0  0  0  0  0  0  0  0  0  0  0
   26.1200   25.9200   33.6900 C   0  0  0  0  0  0  0  0  0  0  0  0
   25.6300   25.1100   32.9400 O   0  0  0  0  0  0  0  0  0  0  0  0
   27.5200   26.3800   33.4600 C   0  0  0  0  0  0  0  0  0  0  0  0
   28.1600   26.6300   34.6100 N   0  0  0  0  0  0  0  0  0  0  0  0
   29.4800   26.8500   34.5700 N   0  0  0  0  0  0  0  0  0  0  0  0
   30.1900   26.7800   33.4400 C   0  0  0  0  0  0  0  0  0  0  0  0
   31.5600   27.0500   33.5000 C   0  0  0  0  0  0  0  0  0  0  0  0
   32.2700   27.2400   32.3100 C   0  0  0  0  0  0  0  0  0  0  0  0
   31.6100   27.2500   31.0800 C   0  0  0  0  0  0  0  0  0  0  0  0
   30.2700   26.8700   31.0600 C   0  0  0  0  0  0  0  0  0  0  0  0
   29.5100   26.6900   32.2300 C   0  0  0  0  0  0  0  0  0  0  0  0
   28.1400   26.4100   32.2000 C   0  0  0  0  0  0  0  0  0  0  0  0
   27.4300   26.1300   31.0500 N   0  0  0  0  0  0  0  0  0  0  0  0
   23.8998   26.0781   34.8415 C   0  0  0  0  0  0  0  0  0  0  0  0
   23.2161   25.8860   33.7466 N   0  0  0  0  0  0  0  0  0  0  0  0
   21.8023   25.7381   33.5242 C   0  0  0  0  0  0  0  0  0  0  0  0
   21.0179   24.7716   34.0439 C   0  0  0  0  0  0  0  0  0  0  0  0
   19.6391   24.5327   33.4863 C   0  0  0  0  0  0  0  0  0  0  0  0
   19.1367   23.3918   34.2288 N   0  0  0  0  0  0  0  0  0  0  0  0
   20.0875   22.9899   35.1985 C   0  0  0  0  0  0  0  0  0  0  0  0
   19.8843   22.0450   36.0072 O   0  0  0  0  0  0  0  0  0  0  0  0
   21.3117   23.8359   35.1971 C   0  0  1  0  0  0  0  0  0  0  0  0
   22.5908   22.9875   35.0344 C   0  0  0  0  0  0  0  0  0  0  0  0
   23.2854   22.7627   36.3891 C   0  0  0  0  0  0  0  0  0  0  0  0
   24.2898   23.8679   36.7679 C   0  0  0  0  0  0  0  0  0  0  0  0
   23.6729   25.2075   37.2539 C   0  0  0  0  0  0  0  0  0  0  0  0
   23.2478   26.2573   36.1872 C   0  0  0  0  0  0  0  0  0  0  0  0
   17.8386   22.7634   34.0157 C   0  0  0  0  0  0  0  0  0  0  0  0
  1  2  1  0
  2  3  2  0
  2  4  1  0
  4  5  2  0
  5  6  1  0
  6  7  2  0
  7  8  1  0
  8  9  2  0
  9 10  1  0
 10 11  2  0
 11 12  1  0
 12 13  2  0
 13 14  1  0
  1 15  1  0
 15 16  2  0
 16 17  1  0
 17 18  2  0
 18 19  1  0
 19 20  1  0
 20 21  1  0
 21 22  2  0
 21 23  1  0
 23 24  1  6
 24 25  1  0
 25 26  1  0
 26 27  1  0
 27 28  1  0
 20 29  1  0
 13  4  1  0
 28 15  1  0
 12  7  1  0
 23 18  1  0
M  END
>  <AAScore>  (1) 
4926.854334124469

>  <RootName>  (1) 
./4ZLY/04_DeltaGEst/trajectory_03/rank_00/lead_0411

$$$$
