confid_2
     RDKit          3D

 27 30  0  0  0  0  0  0  0  0999 V2000
   24.5500   26.3900   36.2500 N   0  0  0  0  0  0  0  0  0  0  0  0
   25.6000   26.1300   35.4000 C   0  0  0  0  0  0  0  0  0  0  0  0
   25.4300   25.4300   34.4200 O   0  0  0  0  0  0  0  0  0  0  0  0
   26.9800   26.6300   35.7100 C   0  0  0  0  0  0  0  0  0  0  0  0
   27.3200   26.8200   36.9800 N   0  0  0  0  0  0  0  0  0  0  0  0
   28.4700   27.4000   37.3100 N   0  0  0  0  0  0  0  0  0  0  0  0
   29.4000   27.6300   36.3700 C   0  0  0  0  0  0  0  0  0  0  0  0
   30.6600   28.0500   36.8000 C   0  0  0  0  0  0  0  0  0  0  0  0
   31.5700   28.3600   35.7800 C   0  0  0  0  0  0  0  0  0  0  0  0
   31.3700   28.1000   34.4300 C   0  0  0  0  0  0  0  0  0  0  0  0
   30.1200   27.5900   34.0500 C   0  0  0  0  0  0  0  0  0  0  0  0
   29.1500   27.3400   35.0300 C   0  0  0  0  0  0  0  0  0  0  0  0
   27.8800   26.8900   34.6600 C   0  0  0  0  0  0  0  0  0  0  0  0
   27.4800   26.6100   33.3700 N   0  0  0  0  0  0  0  0  0  0  0  0
   31.0011   28.3098   38.2151 C   0  0  0  0  0  0  0  0  0  0  0  0
   32.0667   27.7208   38.8777 C   0  0  0  0  0  0  0  0  0  0  0  0
   32.0383   28.2357   40.1570 C   0  0  0  0  0  0  0  0  0  0  0  0
   33.0107   28.0078   41.2649 C   0  0  0  0  0  0  0  0  0  0  0  0
   32.4426   28.4172   42.5614 N   0  0  0  0  0  0  0  0  0  0  0  0
   31.3944   29.4174   42.6526 C   0  0  0  0  0  0  0  0  0  0  0  0
   31.0526   29.8716   43.7783 O   0  0  0  0  0  0  0  0  0  0  0  0
   30.7016   29.9588   41.4270 C   0  0  0  0  0  0  0  0  0  0  0  0
   30.9948   29.1209   40.2227 C   0  0  0  0  0  0  0  0  0  0  0  0
   30.3651   29.1883   39.0304 N   0  0  0  0  0  0  0  0  0  0  0  0
   29.2439   30.0675   38.6960 C   0  0  0  0  0  0  0  0  0  0  0  0
   33.0681   27.9010   43.7863 C   0  0  0  0  0  0  0  0  0  0  0  0
   32.1599   26.8765   44.4578 C   0  0  0  0  0  0  0  0  0  0  0  0
  1  2  1  0
  2  3  2  0
  2  4  1  0
  4  5  2  0
  5  6  1  0
  6  7  2  0
  7  8  1  0
  8  9  2  0
  9 10  1  0
 10 11  2  0
 11 12  1  0
 12 13  2  0
 13 14  1  0
  8 15  1  0
 15 16  2  0
 16 17  1  0
 17 18  1  0
 18 19  1  0
 19 20  1  0
 20 21  2  0
 20 22  1  0
 22 23  1  0
 23 24  1  0
 24 25  1  0
 19 26  1  0
 26 27  1  0
 13  4  1  0
 24 15  1  0
 12  7  1  0
 23 17  2  0
M  END
>  <AAScore>  (1) 
1058.3204190621434

>  <RootName>  (1) 
./4ZLY/04_DeltaGEst/trajectory_01/rank_01/lead_0294

$$$$
