confid_8
     RDKit          3D

 29 32  0  0  0  0  0  0  0  0999 V2000
   24.5700   26.8800   35.5900 N   0  0  0  0  0  0  0  0  0  0  0  0
   25.5000   26.4000   34.6900 C   0  0  0  0  0  0  0  0  0  0  0  0
   25.1700   25.5200   33.9100 O   0  0  0  0  0  0  0  0  0  0  0  0
   26.8400   27.0200   34.7400 C   0  0  0  0  0  0  0  0  0  0  0  0
   27.3800   27.2800   35.9400 N   0  0  0  0  0  0  0  0  0  0  0  0
   28.6200   27.7400   36.0300 N   0  0  0  0  0  0  0  0  0  0  0  0
   29.3800   28.0000   34.9600 C   0  0  0  0  0  0  0  0  0  0  0  0
   30.6700   28.5000   35.1300 C   0  0  0  0  0  0  0  0  0  0  0  0
   31.5400   28.6100   34.0300 C   0  0  0  0  0  0  0  0  0  0  0  0
   31.0900   28.2200   32.7700 C   0  0  0  0  0  0  0  0  0  0  0  0
   29.8000   27.7000   32.6000 C   0  0  0  0  0  0  0  0  0  0  0  0
   28.9600   27.5500   33.7100 C   0  0  0  0  0  0  0  0  0  0  0  0
   27.6600   27.0300   33.5900 C   0  0  0  0  0  0  0  0  0  0  0  0
   27.1600   26.7400   32.3400 N   0  0  0  0  0  0  0  0  0  0  0  0
   33.1577   29.2691   34.2510 S   0  0  0  0  0  6  0  0  0  0  0  0
   33.7900   28.6136   35.4461 O   0  0  0  0  0  0  0  0  0  0  0  0
   34.0003   28.9780   33.0396 O   0  0  0  0  0  0  0  0  0  0  0  0
   33.0361   31.0459   34.5009 C   0  0  2  0  0  0  0  0  0  0  0  0
   32.3789   31.7432   33.3026 C   0  0  0  0  0  0  0  0  0  0  0  0
   33.2078   32.9015   32.9175 N   0  0  0  0  0  0  0  0  0  0  0  0
   34.1856   33.1040   34.0024 C   0  0  2  0  0  0  0  0  0  0  0  0
   34.3984   31.7182   34.6433 C   0  0  1  0  0  0  0  0  0  0  0  0
   34.9374   31.7021   36.0934 C   0  0  0  0  0  0  0  0  0  0  0  0
   36.3717   32.2247   36.1783 C   0  0  0  0  0  0  0  0  0  0  0  0
   33.6343   34.1793   34.9686 C   0  0  0  0  0  0  0  0  0  0  0  0
   33.3523   35.4942   34.2231 C   0  0  0  0  0  0  0  0  0  0  0  0
   33.4361   36.7542   35.0714 C   0  0  0  0  0  0  0  0  0  0  0  0
   34.5413   36.4316   34.0768 C   0  0  0  0  0  0  0  0  0  0  0  0
   33.8809   32.6723   31.6272 C   0  0  0  0  0  0  0  0  0  0  0  0
  1  2  1  0
  2  3  2  0
  2  4  1  0
  4  5  2  0
  5  6  1  0
  6  7  2  0
  7  8  1  0
  8  9  2  0
  9 10  1  0
 10 11  2  0
 11 12  1  0
 12 13  2  0
 13 14  1  0
  9 15  1  0
 15 16  2  0
 15 17  2  0
 18 15  1  6
 18 19  1  0
 19 20  1  0
 20 21  1  0
 21 22  1  0
 22 23  1  1
 23 24  1  0
 21 25  1  1
 25 26  1  0
 26 27  1  0
 27 28  1  0
 20 29  1  0
 13  4  1  0
 22 18  1  0
 28 26  1  0
 12  7  1  0
M  END
>  <AAScore>  (1) 
-5.809259133483832

>  <RootName>  (1) 
./4ZLY/04_DeltaGEst/trajectory_05/rank_01/lead_0359

$$$$
