confid_14
     RDKit          3D

 28 31  0  0  0  0  0  0  0  0999 V2000
   24.6900   26.1200   35.5300 N   0  0  0  0  0  0  0  0  0  0  0  0
   25.6600   25.6700   34.6600 C   0  0  0  0  0  0  0  0  0  0  0  0
   25.2400   25.0100   33.7200 O   0  0  0  0  0  0  0  0  0  0  0  0
   27.0300   26.2200   34.8800 C   0  0  0  0  0  0  0  0  0  0  0  0
   27.3500   26.7300   36.0700 N   0  0  0  0  0  0  0  0  0  0  0  0
   28.5700   27.1800   36.3300 N   0  0  0  0  0  0  0  0  0  0  0  0
   29.5300   27.1100   35.3900 C   0  0  0  0  0  0  0  0  0  0  0  0
   30.8300   27.5700   35.6500 C   0  0  0  0  0  0  0  0  0  0  0  0
   31.8500   27.5400   34.6900 C   0  0  0  0  0  0  0  0  0  0  0  0
   31.5100   27.1200   33.4000 C   0  0  0  0  0  0  0  0  0  0  0  0
   30.2200   26.6300   33.1100 C   0  0  0  0  0  0  0  0  0  0  0  0
   29.2400   26.6600   34.1000 C   0  0  0  0  0  0  0  0  0  0  0  0
   27.9300   26.2600   33.8100 C   0  0  0  0  0  0  0  0  0  0  0  0
   27.5200   25.7100   32.6100 N   0  0  0  0  0  0  0  0  0  0  0  0
   23.2840   26.0577   35.2441 C   0  0  0  0  0  0  0  0  0  0  0  0
   22.4578   25.4762   36.0449 N   0  0  0  0  0  0  0  0  0  0  0  0
   21.1782   25.5248   35.4253 C   0  0  0  0  0  0  0  0  0  0  0  0
   21.2077   26.1441   34.2457 C   0  0  0  0  0  0  0  0  0  0  0  0
   20.1648   25.8504   33.1861 C   0  0  0  0  0  0  0  0  0  0  0  0
   19.4967   27.1041   32.5921 C   0  0  0  0  0  0  0  0  0  0  0  0
   20.0750   27.5631   31.3019 N   0  0  0  0  0  0  0  0  0  0  0  0
   19.5165   26.8029   30.1698 C   0  0  0  0  0  0  0  0  0  0  0  0
   21.5539   27.5585   31.2417 C   0  0  0  0  0  0  0  0  0  0  0  0
   22.1851   28.4230   32.3623 C   0  0  2  0  0  0  0  0  0  0  0  0
   22.8747   29.6631   31.7681 C   0  0  0  0  0  0  0  0  0  0  0  0
   23.0909   27.5921   33.2630 C   0  0  0  0  0  0  0  0  0  0  0  0
   22.5991   26.6198   34.0672 C   0  0  0  0  0  0  0  0  0  0  0  0
   24.4608   27.8649   33.3291 O   0  0  0  0  0  0  0  0  0  0  0  0
  1  2  1  0
  2  3  2  0
  2  4  1  0
  4  5  2  0
  5  6  1  0
  6  7  2  0
  7  8  1  0
  8  9  2  0
  9 10  1  0
 10 11  2  0
 11 12  1  0
 12 13  2  0
 13 14  1  0
  1 15  1  0
 15 16  2  0
 16 17  1  0
 17 18  2  0
 18 19  1  0
 19 20  1  0
 20 21  1  0
 21 22  1  0
 21 23  1  0
 23 24  1  0
 24 25  1  6
 24 26  1  0
 26 27  2  0
 26 28  1  0
 13  4  1  0
 27 15  1  0
 12  7  1  0
 27 18  1  0
M  END
>  <AAScore>  (1) 
8592.777495653292

>  <RootName>  (1) 
./4ZLY/04_DeltaGEst/trajectory_02/rank_00/lead_0160

$$$$
