confid_12
     RDKit          3D

 31 33  0  0  0  0  0  0  0  0999 V2000
   24.5500   26.3900   36.2500 N   0  0  0  0  0  0  0  0  0  0  0  0
   25.6000   26.1300   35.4000 C   0  0  0  0  0  0  0  0  0  0  0  0
   25.4300   25.4300   34.4200 O   0  0  0  0  0  0  0  0  0  0  0  0
   26.9800   26.6300   35.7100 C   0  0  0  0  0  0  0  0  0  0  0  0
   27.3200   26.8200   36.9800 N   0  0  0  0  0  0  0  0  0  0  0  0
   28.4700   27.4000   37.3100 N   0  0  0  0  0  0  0  0  0  0  0  0
   29.4000   27.6300   36.3700 C   0  0  0  0  0  0  0  0  0  0  0  0
   30.6600   28.0500   36.8000 C   0  0  0  0  0  0  0  0  0  0  0  0
   31.5700   28.3600   35.7800 C   0  0  0  0  0  0  0  0  0  0  0  0
   31.3700   28.1000   34.4300 C   0  0  0  0  0  0  0  0  0  0  0  0
   30.1200   27.5900   34.0500 C   0  0  0  0  0  0  0  0  0  0  0  0
   29.1500   27.3400   35.0300 C   0  0  0  0  0  0  0  0  0  0  0  0
   27.8800   26.8900   34.6600 C   0  0  0  0  0  0  0  0  0  0  0  0
   27.4800   26.6100   33.3700 N   0  0  0  0  0  0  0  0  0  0  0  0
   23.6313   25.3706   36.7846 C   0  0  1  0  0  0  0  0  0  0  0  0
   22.7923   26.0033   37.9309 C   0  0  0  0  0  0  0  0  0  0  0  0
   21.8079   25.0478   38.6275 C   0  0  0  0  0  0  0  0  0  0  0  0
   20.9548   25.7919   39.5727 N   0  0  0  0  0  0  0  0  0  0  0  0
   19.6454   26.3020   39.2105 C   0  0  0  0  0  0  0  0  0  0  0  0
   18.9650   26.9262   40.0709 O   0  0  0  0  0  0  0  0  0  0  0  0
   19.0553   26.1498   37.8273 C   0  0  0  0  0  0  0  0  0  0  0  0
   19.8086   26.9377   36.8243 N   0  0  0  0  0  0  0  0  0  0  0  0
   19.7389   28.4054   37.0433 C   0  0  0  0  0  0  0  0  0  0  0  0
   18.3319   29.0085   36.8383 C   0  0  0  0  0  0  0  0  0  0  0  0
   18.3947   30.4749   36.8914 C   0  0  0  0  0  0  0  0  0  0  0  0
   18.4451   31.6319   36.9300 N   0  0  0  0  0  0  0  0  0  0  0  0
   19.4716   26.5540   35.4309 C   0  0  0  0  0  0  0  0  0  0  0  0
   20.3541   25.3851   34.9610 C   0  0  0  0  0  0  0  0  0  0  0  0
   21.8582   25.7561   34.9149 C   0  0  0  0  0  0  0  0  0  0  0  0
   22.7621   24.7435   35.6598 C   0  0  0  0  0  0  0  0  0  0  0  0
   21.4672   26.0662   40.9196 C   0  0  0  0  0  0  0  0  0  0  0  0
  1  2  1  0
  2  3  2  0
  2  4  1  0
  4  5  2  0
  5  6  1  0
  6  7  2  0
  7  8  1  0
  8  9  2  0
  9 10  1  0
 10 11  2  0
 11 12  1  0
 12 13  2  0
 13 14  1  0
 15  1  1  6
 15 16  1  0
 16 17  1  0
 17 18  1  0
 18 19  1  0
 19 20  2  0
 19 21  1  0
 21 22  1  0
 22 23  1  0
 23 24  1  0
 24 25  1  0
 25 26  3  0
 22 27  1  0
 27 28  1  0
 28 29  1  0
 29 30  1  0
 18 31  1  0
 13  4  1  0
 30 15  1  0
 12  7  1  0
M  END
>  <AAScore>  (1) 
518.1983548153753

>  <RootName>  (1) 
./4ZLY/04_DeltaGEst/trajectory_01/rank_00/lead_0430

$$$$
