confid_14
     RDKit          3D

 28 31  0  0  0  0  0  0  0  0999 V2000
   24.6900   26.1200   35.5300 N   0  0  0  0  0  0  0  0  0  0  0  0
   25.6600   25.6700   34.6600 C   0  0  0  0  0  0  0  0  0  0  0  0
   25.2400   25.0100   33.7200 O   0  0  0  0  0  0  0  0  0  0  0  0
   27.0300   26.2200   34.8800 C   0  0  0  0  0  0  0  0  0  0  0  0
   27.3500   26.7300   36.0700 N   0  0  0  0  0  0  0  0  0  0  0  0
   28.5700   27.1800   36.3300 N   0  0  0  0  0  0  0  0  0  0  0  0
   29.5300   27.1100   35.3900 C   0  0  0  0  0  0  0  0  0  0  0  0
   30.8300   27.5700   35.6500 C   0  0  0  0  0  0  0  0  0  0  0  0
   31.8500   27.5400   34.6900 C   0  0  0  0  0  0  0  0  0  0  0  0
   31.5100   27.1200   33.4000 C   0  0  0  0  0  0  0  0  0  0  0  0
   30.2200   26.6300   33.1100 C   0  0  0  0  0  0  0  0  0  0  0  0
   29.2400   26.6600   34.1000 C   0  0  0  0  0  0  0  0  0  0  0  0
   27.9300   26.2600   33.8100 C   0  0  0  0  0  0  0  0  0  0  0  0
   27.5200   25.7100   32.6100 N   0  0  0  0  0  0  0  0  0  0  0  0
   31.1450   28.0744   36.9567 N   0  0  0  0  0  0  0  0  0  0  0  0
   31.3317   29.5188   37.1394 C   0  0  0  0  0  0  0  0  0  0  0  0
   31.6216   29.8685   38.6046 C   0  0  0  0  0  0  0  0  0  0  0  0
   30.7139   29.1343   39.5011 N   0  0  0  0  0  0  0  0  0  0  0  0
   30.2005   29.7708   40.6902 C   0  0  0  0  0  0  0  0  0  0  0  0
   31.0198   30.6170   41.4578 C   0  0  0  0  0  0  0  0  0  0  0  0
   30.5071   31.2681   42.5834 C   0  0  0  0  0  0  0  0  0  0  0  0
   29.1755   31.0760   42.9648 C   0  0  0  0  0  0  0  0  0  0  0  0
   28.6895   31.7381   44.0458 F   0  0  0  0  0  0  0  0  0  0  0  0
   28.3492   30.2132   42.2264 C   0  0  0  0  0  0  0  0  0  0  0  0
   26.9060   30.0395   42.6082 C   0  0  0  0  0  0  0  0  0  0  0  0
   28.8630   29.5738   41.0851 C   0  0  0  0  0  0  0  0  0  0  0  0
   30.4472   27.7030   39.2744 C   0  0  0  0  0  0  0  0  0  0  0  0
   31.2561   27.1577   38.0947 C   0  0  0  0  0  0  0  0  0  0  0  0
  1  2  1  0
  2  3  2  0
  2  4  1  0
  4  5  2  0
  5  6  1  0
  6  7  2  0
  7  8  1  0
  8  9  2  0
  9 10  1  0
 10 11  2  0
 11 12  1  0
 12 13  2  0
 13 14  1  0
  8 15  1  0
 15 16  1  0
 16 17  1  0
 17 18  1  0
 18 19  1  0
 19 20  2  0
 20 21  1  0
 21 22  2  0
 22 23  1  0
 22 24  1  0
 24 25  1  0
 24 26  2  0
 18 27  1  0
 27 28  1  0
 13  4  1  0
 28 15  1  0
 12  7  1  0
 26 19  1  0
M  END
>  <AAScore>  (1) 
-5.8361708383726105

>  <RootName>  (1) 
./4ZLY/04_DeltaGEst/trajectory_02/rank_01/lead_0478

$$$$
