confid_14
     RDKit          3D

 27 30  0  0  0  0  0  0  0  0999 V2000
   24.5700   26.8800   35.5900 N   0  0  0  0  0  0  0  0  0  0  0  0
   25.5000   26.4000   34.6900 C   0  0  0  0  0  0  0  0  0  0  0  0
   25.1700   25.5200   33.9100 O   0  0  0  0  0  0  0  0  0  0  0  0
   26.8400   27.0200   34.7400 C   0  0  0  0  0  0  0  0  0  0  0  0
   27.3800   27.2800   35.9400 N   0  0  0  0  0  0  0  0  0  0  0  0
   28.6200   27.7400   36.0300 N   0  0  0  0  0  0  0  0  0  0  0  0
   29.3800   28.0000   34.9600 C   0  0  0  0  0  0  0  0  0  0  0  0
   30.6700   28.5000   35.1300 C   0  0  0  0  0  0  0  0  0  0  0  0
   31.5400   28.6100   34.0300 C   0  0  0  0  0  0  0  0  0  0  0  0
   31.0900   28.2200   32.7700 C   0  0  0  0  0  0  0  0  0  0  0  0
   29.8000   27.7000   32.6000 C   0  0  0  0  0  0  0  0  0  0  0  0
   28.9600   27.5500   33.7100 C   0  0  0  0  0  0  0  0  0  0  0  0
   27.6600   27.0300   33.5900 C   0  0  0  0  0  0  0  0  0  0  0  0
   27.1600   26.7400   32.3400 N   0  0  0  0  0  0  0  0  0  0  0  0
   23.1518   26.6637   35.4976 C   0  0  0  0  0  0  0  0  0  0  0  0
   22.3142   26.8613   36.5361 N   0  0  0  0  0  0  0  0  0  0  0  0
   21.0957   26.6112   36.0140 C   0  0  0  0  0  0  0  0  0  0  0  0
   21.1346   26.2817   34.7062 N   0  0  0  0  0  0  0  0  0  0  0  0
   19.9892   25.9943   33.8345 C   0  0  0  0  0  0  0  0  0  0  0  0
   20.1203   24.5970   33.2070 C   0  0  0  0  0  0  0  0  0  0  0  0
   18.9669   24.3409   32.2307 C   0  0  0  0  0  0  0  0  0  0  0  0
   18.9413   25.3813   31.1827 N   0  0  0  0  0  0  0  0  0  0  0  0
   17.8790   25.0856   30.2094 C   0  0  0  0  0  0  0  0  0  0  0  0
   18.7191   26.7138   31.7800 C   0  0  0  0  0  0  0  0  0  0  0  0
   19.8619   27.0650   32.7393 C   0  0  0  0  0  0  0  0  0  0  0  0
   22.4360   26.3222   34.3651 C   0  0  0  0  0  0  0  0  0  0  0  0
   19.9507   26.7047   36.7345 F   0  0  0  0  0  0  0  0  0  0  0  0
  1  2  1  0
  2  3  2  0
  2  4  1  0
  4  5  2  0
  5  6  1  0
  6  7  2  0
  7  8  1  0
  8  9  2  0
  9 10  1  0
 10 11  2  0
 11 12  1  0
 12 13  2  0
 13 14  1  0
  1 15  1  0
 15 16  1  0
 16 17  2  0
 17 18  1  0
 18 19  1  0
 19 20  1  0
 20 21  1  0
 21 22  1  0
 22 23  1  0
 22 24  1  0
 24 25  1  0
 18 26  1  0
 17 27  1  0
 13  4  1  0
 26 15  2  0
 12  7  1  0
 25 19  1  0
M  END
>  <AAScore>  (1) 
165.59786238755936

>  <RootName>  (1) 
./4ZLY/04_DeltaGEst/trajectory_05/rank_00/lead_0256

$$$$
