confid_18
     RDKit          3D

 28 31  0  0  0  0  0  0  0  0999 V2000
   24.6900   26.1200   35.5300 N   0  0  0  0  0  0  0  0  0  0  0  0
   25.6600   25.6700   34.6600 C   0  0  0  0  0  0  0  0  0  0  0  0
   25.2400   25.0100   33.7200 O   0  0  0  0  0  0  0  0  0  0  0  0
   27.0300   26.2200   34.8800 C   0  0  0  0  0  0  0  0  0  0  0  0
   27.3500   26.7300   36.0700 N   0  0  0  0  0  0  0  0  0  0  0  0
   28.5700   27.1800   36.3300 N   0  0  0  0  0  0  0  0  0  0  0  0
   29.5300   27.1100   35.3900 C   0  0  0  0  0  0  0  0  0  0  0  0
   30.8300   27.5700   35.6500 C   0  0  0  0  0  0  0  0  0  0  0  0
   31.8500   27.5400   34.6900 C   0  0  0  0  0  0  0  0  0  0  0  0
   31.5100   27.1200   33.4000 C   0  0  0  0  0  0  0  0  0  0  0  0
   30.2200   26.6300   33.1100 C   0  0  0  0  0  0  0  0  0  0  0  0
   29.2400   26.6600   34.1000 C   0  0  0  0  0  0  0  0  0  0  0  0
   27.9300   26.2600   33.8100 C   0  0  0  0  0  0  0  0  0  0  0  0
   27.5200   25.7100   32.6100 N   0  0  0  0  0  0  0  0  0  0  0  0
   31.1497   28.0579   36.9626 N   0  0  0  0  0  0  0  0  0  0  0  0
   31.4632   29.4820   37.1437 C   0  0  0  0  0  0  0  0  0  0  0  0
   31.7745   29.7978   38.6089 C   0  0  0  0  0  0  0  0  0  0  0  0
   30.7809   29.1479   39.4762 N   0  0  0  0  0  0  0  0  0  0  0  0
   30.1258   29.8655   40.5396 C   0  0  0  0  0  0  0  0  0  0  0  0
   29.6654   31.1802   40.3554 C   0  0  0  0  0  0  0  0  0  0  0  0
   29.0115   31.8325   41.4024 C   0  0  0  0  0  0  0  0  0  0  0  0
   28.5578   33.0992   41.2346 F   0  0  0  0  0  0  0  0  0  0  0  0
   28.8123   31.1749   42.6169 C   0  0  0  0  0  0  0  0  0  0  0  0
   29.2731   29.8619   42.7687 C   0  0  0  0  0  0  0  0  0  0  0  0
   29.0409   29.1201   44.0462 C   0  0  0  0  0  0  0  0  0  0  0  0
   29.9013   29.2438   41.7315 N   0  0  0  0  0  0  0  0  0  0  0  0
   30.4987   27.7132   39.3106 C   0  0  0  0  0  0  0  0  0  0  0  0
   31.2269   27.1261   38.0945 C   0  0  0  0  0  0  0  0  0  0  0  0
  1  2  1  0
  2  3  2  0
  2  4  1  0
  4  5  2  0
  5  6  1  0
  6  7  2  0
  7  8  1  0
  8  9  2  0
  9 10  1  0
 10 11  2  0
 11 12  1  0
 12 13  2  0
 13 14  1  0
  8 15  1  0
 15 16  1  0
 16 17  1  0
 17 18  1  0
 18 19  1  0
 19 20  2  0
 20 21  1  0
 21 22  1  0
 21 23  2  0
 23 24  1  0
 24 25  1  0
 24 26  2  0
 18 27  1  0
 27 28  1  0
 13  4  1  0
 28 15  1  0
 12  7  1  0
 26 19  1  0
M  END
>  <AAScore>  (1) 
3.996045116579961

>  <RootName>  (1) 
./4ZLY/04_DeltaGEst/trajectory_02/rank_01/lead_0482

$$$$
