confid_14
     RDKit          3D

 27 30  0  0  0  0  0  0  0  0999 V2000
   25.3300   26.2600   34.7600 N   0  0  0  0  0  0  0  0  0  0  0  0
   26.1200   25.9200   33.6900 C   0  0  0  0  0  0  0  0  0  0  0  0
   25.6300   25.1100   32.9400 O   0  0  0  0  0  0  0  0  0  0  0  0
   27.5200   26.3800   33.4600 C   0  0  0  0  0  0  0  0  0  0  0  0
   28.1600   26.6300   34.6100 N   0  0  0  0  0  0  0  0  0  0  0  0
   29.4800   26.8500   34.5700 N   0  0  0  0  0  0  0  0  0  0  0  0
   30.1900   26.7800   33.4400 C   0  0  0  0  0  0  0  0  0  0  0  0
   31.5600   27.0500   33.5000 C   0  0  0  0  0  0  0  0  0  0  0  0
   32.2700   27.2400   32.3100 C   0  0  0  0  0  0  0  0  0  0  0  0
   31.6100   27.2500   31.0800 C   0  0  0  0  0  0  0  0  0  0  0  0
   30.2700   26.8700   31.0600 C   0  0  0  0  0  0  0  0  0  0  0  0
   29.5100   26.6900   32.2300 C   0  0  0  0  0  0  0  0  0  0  0  0
   28.1400   26.4100   32.2000 C   0  0  0  0  0  0  0  0  0  0  0  0
   27.4300   26.1300   31.0500 N   0  0  0  0  0  0  0  0  0  0  0  0
   23.9319   25.9526   34.9278 C   0  0  0  0  0  0  0  0  0  0  0  0
   23.2165   25.3507   33.9413 N   0  0  0  0  0  0  0  0  0  0  0  0
   21.8954   25.0722   34.0888 C   0  0  0  0  0  0  0  0  0  0  0  0
   21.1556   24.3788   32.9679 C   0  0  0  0  0  0  0  0  0  0  0  0
   20.6916   23.0065   33.3034 N   0  0  0  0  0  0  0  0  0  0  0  0
   19.4915   22.6424   32.5337 C   0  0  0  0  0  0  0  0  0  0  0  0
   20.5606   22.6599   34.7403 C   0  0  0  0  0  0  0  0  0  0  0  0
   19.5572   23.5287   35.5368 C   0  0  0  0  0  0  0  0  0  0  0  0
   19.7734   25.0510   35.4476 C   0  0  0  0  0  0  0  0  0  0  0  0
   21.2350   25.4176   35.2842 C   0  0  0  0  0  0  0  0  0  0  0  0
   21.9967   26.0289   36.3048 C   0  0  0  0  0  0  0  0  0  0  0  0
   23.3149   26.2844   36.0912 N   0  0  0  0  0  0  0  0  0  0  0  0
   21.4042   26.4100   37.6294 C   0  0  0  0  0  0  0  0  0  0  0  0
  1  2  1  0
  2  3  2  0
  2  4  1  0
  4  5  2  0
  5  6  1  0
  6  7  2  0
  7  8  1  0
  8  9  2  0
  9 10  1  0
 10 11  2  0
 11 12  1  0
 12 13  2  0
 13 14  1  0
  1 15  1  0
 15 16  2  0
 16 17  1  0
 17 18  1  0
 18 19  1  0
 19 20  1  0
 19 21  1  0
 21 22  1  0
 22 23  1  0
 23 24  1  0
 24 25  1  0
 25 26  2  0
 25 27  1  0
 13  4  1  0
 26 15  1  0
 12  7  1  0
 24 17  2  0
M  END
>  <AAScore>  (1) 
3383.7628115548405

>  <RootName>  (1) 
./4ZLY/04_DeltaGEst/trajectory_03/rank_00/lead_0305

$$$$
