confid_5
     RDKit          3D

 32 35  0  0  0  0  0  0  0  0999 V2000
   24.5500   26.3900   36.2500 N   0  0  0  0  0  0  0  0  0  0  0  0
   25.6000   26.1300   35.4000 C   0  0  0  0  0  0  0  0  0  0  0  0
   25.4300   25.4300   34.4200 O   0  0  0  0  0  0  0  0  0  0  0  0
   26.9800   26.6300   35.7100 C   0  0  0  0  0  0  0  0  0  0  0  0
   27.3200   26.8200   36.9800 N   0  0  0  0  0  0  0  0  0  0  0  0
   28.4700   27.4000   37.3100 N   0  0  0  0  0  0  0  0  0  0  0  0
   29.4000   27.6300   36.3700 C   0  0  0  0  0  0  0  0  0  0  0  0
   30.6600   28.0500   36.8000 C   0  0  0  0  0  0  0  0  0  0  0  0
   31.5700   28.3600   35.7800 C   0  0  0  0  0  0  0  0  0  0  0  0
   31.3700   28.1000   34.4300 C   0  0  0  0  0  0  0  0  0  0  0  0
   30.1200   27.5900   34.0500 C   0  0  0  0  0  0  0  0  0  0  0  0
   29.1500   27.3400   35.0300 C   0  0  0  0  0  0  0  0  0  0  0  0
   27.8800   26.8900   34.6600 C   0  0  0  0  0  0  0  0  0  0  0  0
   27.4800   26.6100   33.3700 N   0  0  0  0  0  0  0  0  0  0  0  0
   31.0096   28.2952   38.2207 C   0  0  0  0  0  0  0  0  0  0  0  0
   32.1647   27.7187   38.7636 C   0  0  0  0  0  0  0  0  0  0  0  0
   32.5094   27.9091   40.1143 C   0  0  0  0  0  0  0  0  0  0  0  0
   33.7531   27.2121   40.6207 C   0  0  0  0  0  0  0  0  0  0  0  0
   33.5717   25.7549   40.6023 N   0  0  0  0  0  0  0  0  0  0  0  0
   32.8915   25.0986   41.6784 C   0  0  0  0  0  0  0  0  0  0  0  0
   33.5587   24.6317   42.6409 O   0  0  0  0  0  0  0  0  0  0  0  0
   31.4063   24.8848   41.6271 C   0  0  0  0  0  0  0  0  0  0  0  0
   30.6797   25.4681   42.8513 C   0  0  0  0  0  0  0  0  0  0  0  0
   30.4920   26.9294   42.6946 N   0  0  0  0  0  0  0  0  0  0  0  0
   29.2012   27.3901   43.2509 C   0  0  0  0  0  0  0  0  0  0  0  0
   28.0750   27.1742   42.2421 C   0  0  0  0  0  0  0  0  0  0  0  0
   31.6267   27.6973   43.2615 C   0  0  0  0  0  0  0  0  0  0  0  0
   31.9299   28.9454   42.4136 C   0  0  0  0  0  0  0  0  0  0  0  0
   31.6813   28.7276   40.9314 C   0  0  0  0  0  0  0  0  0  0  0  0
   30.5388   29.3211   40.3644 C   0  0  0  0  0  0  0  0  0  0  0  0
   30.2076   29.1096   39.0276 C   0  0  0  0  0  0  0  0  0  0  0  0
   34.1565   24.9277   39.5469 C   0  0  0  0  0  0  0  0  0  0  0  0
  1  2  1  0
  2  3  2  0
  2  4  1  0
  4  5  2  0
  5  6  1  0
  6  7  2  0
  7  8  1  0
  8  9  2  0
  9 10  1  0
 10 11  2  0
 11 12  1  0
 12 13  2  0
 13 14  1  0
  8 15  1  0
 15 16  2  0
 16 17  1  0
 17 18  1  0
 18 19  1  0
 19 20  1  0
 20 21  2  0
 20 22  1  0
 22 23  1  0
 23 24  1  0
 24 25  1  0
 25 26  1  0
 24 27  1  0
 27 28  1  0
 28 29  1  0
 29 30  1  0
 30 31  2  0
 19 32  1  0
 13  4  1  0
 31 15  1  0
 12  7  1  0
 29 17  2  0
M  END
>  <AAScore>  (1) 
297.42776513964606

>  <RootName>  (1) 
./4ZLY/04_DeltaGEst/trajectory_01/rank_01/lead_0338

$$$$
