confid_2
     RDKit          3D

 29 32  0  0  0  0  0  0  0  0999 V2000
   24.4800   26.1000   36.1300 N   0  0  0  0  0  0  0  0  0  0  0  0
   25.2500   26.2500   34.9900 C   0  0  0  0  0  0  0  0  0  0  0  0
   24.7400   25.7600   33.9900 O   0  0  0  0  0  0  0  0  0  0  0  0
   26.5900   26.8900   34.9600 C   0  0  0  0  0  0  0  0  0  0  0  0
   27.0600   27.2400   36.1600 N   0  0  0  0  0  0  0  0  0  0  0  0
   28.3000   27.7100   36.2400 N   0  0  0  0  0  0  0  0  0  0  0  0
   29.0500   27.9600   35.1500 C   0  0  0  0  0  0  0  0  0  0  0  0
   30.3400   28.4900   35.2600 C   0  0  0  0  0  0  0  0  0  0  0  0
   31.1100   28.8200   34.1400 C   0  0  0  0  0  0  0  0  0  0  0  0
   30.5200   28.6700   32.8800 C   0  0  0  0  0  0  0  0  0  0  0  0
   29.2900   28.0200   32.7700 C   0  0  0  0  0  0  0  0  0  0  0  0
   28.5200   27.7100   33.8900 C   0  0  0  0  0  0  0  0  0  0  0  0
   27.2700   27.0800   33.7600 C   0  0  0  0  0  0  0  0  0  0  0  0
   26.7500   26.8800   32.4900 N   0  0  0  0  0  0  0  0  0  0  0  0
   23.2354   25.3256   36.2072 C   0  0  0  0  0  0  0  0  0  0  0  0
   23.5275   23.8423   36.4666 C   0  0  0  0  0  0  0  0  0  0  0  0
   24.2687   23.2440   35.3364 N   0  0  0  0  0  0  0  0  0  0  0  0
   23.3590   22.7517   34.2839 C   0  0  0  0  0  0  0  0  0  0  0  0
   24.1719   22.4957   33.0104 C   0  0  0  0  0  0  0  0  0  0  0  0
   25.5153   21.9970   33.3405 N   0  0  0  0  0  0  0  0  0  0  0  0
   25.7405   21.3292   34.6302 C   0  0  0  0  0  0  0  0  0  0  0  0
   25.1577   22.1548   35.7986 C   0  0  0  0  0  0  0  0  0  0  0  0
   26.5471   21.9937   32.3367 C   0  0  0  0  0  0  0  0  0  0  0  0
   26.8943   23.1816   31.6742 C   0  0  0  0  0  0  0  0  0  0  0  0
   27.9173   23.1871   30.7226 C   0  0  0  0  0  0  0  0  0  0  0  0
   28.6033   22.0071   30.4212 C   0  0  0  0  0  0  0  0  0  0  0  0
   28.2704   20.8115   31.0762 C   0  0  0  0  0  0  0  0  0  0  0  0
   27.2399   20.8096   32.0299 C   0  0  0  0  0  0  0  0  0  0  0  0
   28.9839   19.5334   30.7465 C   0  0  0  0  0  0  0  0  0  0  0  0
  1  2  1  0
  2  3  2  0
  2  4  1  0
  4  5  2  0
  5  6  1  0
  6  7  2  0
  7  8  1  0
  8  9  2  0
  9 10  1  0
 10 11  2  0
 11 12  1  0
 12 13  2  0
 13 14  1  0
  1 15  1  0
 15 16  1  0
 16 17  1  0
 17 18  1  0
 18 19  1  0
 19 20  1  0
 20 21  1  0
 21 22  1  0
 20 23  1  0
 23 24  2  0
 24 25  1  0
 25 26  2  0
 26 27  1  0
 27 28  2  0
 27 29  1  0
 13  4  1  0
 22 17  1  0
 28 23  1  0
 12  7  1  0
M  END
>  <AAScore>  (1) 
881.7113719518017

>  <RootName>  (1) 
./4ZLY/04_DeltaGEst/trajectory_00/rank_00/lead_0054

$$$$
