confid_11
     RDKit          3D

 28 31  0  0  0  0  0  0  0  0999 V2000
   24.2000   26.2400   35.6900 N   0  0  0  0  0  0  0  0  0  0  0  0
   24.8500   26.2800   34.4800 C   0  0  0  0  0  0  0  0  0  0  0  0
   24.3100   25.7400   33.5400 O   0  0  0  0  0  0  0  0  0  0  0  0
   26.1800   26.9700   34.4700 C   0  0  0  0  0  0  0  0  0  0  0  0
   26.6500   27.6000   35.5500 N   0  0  0  0  0  0  0  0  0  0  0  0
   27.7900   28.2700   35.6200 N   0  0  0  0  0  0  0  0  0  0  0  0
   28.5400   28.3000   34.5100 C   0  0  0  0  0  0  0  0  0  0  0  0
   29.7700   28.9400   34.5600 C   0  0  0  0  0  0  0  0  0  0  0  0
   30.7000   28.8900   33.5000 C   0  0  0  0  0  0  0  0  0  0  0  0
   30.3700   28.1400   32.3700 C   0  0  0  0  0  0  0  0  0  0  0  0
   29.1200   27.5200   32.2800 C   0  0  0  0  0  0  0  0  0  0  0  0
   28.2100   27.6100   33.3300 C   0  0  0  0  0  0  0  0  0  0  0  0
   26.9700   26.9700   33.3100 C   0  0  0  0  0  0  0  0  0  0  0  0
   26.5300   26.2400   32.2200 N   0  0  0  0  0  0  0  0  0  0  0  0
   30.1421   29.6805   35.7352 N   0  0  0  0  0  0  0  0  0  0  0  0
   29.3818   30.8727   36.1259 C   0  0  0  0  0  0  0  0  0  0  0  0
   30.3094   31.9820   36.6692 C   0  0  0  0  0  0  0  0  0  0  0  0
   31.6326   31.4814   37.1232 N   0  0  0  0  0  0  0  0  0  0  0  0
   31.5228   30.1409   37.7240 C   0  0  0  0  0  0  0  0  0  0  0  0
   31.1728   29.1372   36.6255 C   0  0  0  0  0  0  0  0  0  0  0  0
   32.2693   32.4236   38.0664 C   0  0  0  0  0  0  0  0  0  0  0  0
   32.6489   33.7029   37.3663 C   0  0  0  0  0  0  0  0  0  0  0  0
   31.9356   34.8877   37.6077 C   0  0  0  0  0  0  0  0  0  0  0  0
   32.2696   36.0607   36.9263 C   0  0  0  0  0  0  0  0  0  0  0  0
   33.3161   36.0614   36.0004 C   0  0  0  0  0  0  0  0  0  0  0  0
   34.0448   34.8874   35.7571 C   0  0  0  0  0  0  0  0  0  0  0  0
   33.6953   33.7058   36.4298 C   0  0  0  0  0  0  0  0  0  0  0  0
   35.1382   34.8773   34.7304 C   0  0  0  0  0  0  0  0  0  0  0  0
  1  2  1  0
  2  3  2  0
  2  4  1  0
  4  5  2  0
  5  6  1  0
  6  7  2  0
  7  8  1  0
  8  9  2  0
  9 10  1  0
 10 11  2  0
 11 12  1  0
 12 13  2  0
 13 14  1  0
  8 15  1  0
 15 16  1  0
 16 17  1  0
 17 18  1  0
 18 19  1  0
 19 20  1  0
 18 21  1  0
 21 22  1  0
 22 23  2  0
 23 24  1  0
 24 25  2  0
 25 26  1  0
 26 27  2  0
 26 28  1  0
 13  4  1  0
 20 15  1  0
 27 22  1  0
 12  7  1  0
M  END
>  <AAScore>  (1) 
-7.84840974060412

>  <RootName>  (1) 
./4ZLY/04_DeltaGEst/trajectory_04/rank_01/lead_0481

$$$$
