confid_16
     RDKit          3D

 29 33  0  0  0  0  0  0  0  0999 V2000
   25.3300   26.2600   34.7600 N   0  0  0  0  0  0  0  0  0  0  0  0
   26.1200   25.9200   33.6900 C   0  0  0  0  0  0  0  0  0  0  0  0
   25.6300   25.1100   32.9400 O   0  0  0  0  0  0  0  0  0  0  0  0
   27.5200   26.3800   33.4600 C   0  0  0  0  0  0  0  0  0  0  0  0
   28.1600   26.6300   34.6100 N   0  0  0  0  0  0  0  0  0  0  0  0
   29.4800   26.8500   34.5700 N   0  0  0  0  0  0  0  0  0  0  0  0
   30.1900   26.7800   33.4400 C   0  0  0  0  0  0  0  0  0  0  0  0
   31.5600   27.0500   33.5000 C   0  0  0  0  0  0  0  0  0  0  0  0
   32.2700   27.2400   32.3100 C   0  0  0  0  0  0  0  0  0  0  0  0
   31.6100   27.2500   31.0800 C   0  0  0  0  0  0  0  0  0  0  0  0
   30.2700   26.8700   31.0600 C   0  0  0  0  0  0  0  0  0  0  0  0
   29.5100   26.6900   32.2300 C   0  0  0  0  0  0  0  0  0  0  0  0
   28.1400   26.4100   32.2000 C   0  0  0  0  0  0  0  0  0  0  0  0
   27.4300   26.1300   31.0500 N   0  0  0  0  0  0  0  0  0  0  0  0
   24.1490   25.5401   35.1706 C   0  0  0  0  0  0  0  0  0  0  0  0
   24.1416   24.2443   35.2819 N   0  0  0  0  0  0  0  0  0  0  0  0
   25.3163   23.4448   35.4200 C   0  0  0  0  0  0  0  0  0  0  0  0
   26.1719   23.7499   36.3925 C   0  0  0  0  0  0  0  0  0  0  0  0
   27.3137   23.1468   37.1504 C   0  0  0  0  0  0  0  0  0  0  0  0
   27.4157   24.1854   38.0731 O   0  0  0  0  0  0  0  0  0  0  0  0
   26.3944   24.8525   37.3993 C   0  0  2  0  0  0  0  0  0  0  0  0
   25.1675   25.1309   38.3129 C   0  0  0  0  0  0  0  0  0  0  0  0
   24.5683   26.5524   38.1333 C   0  0  0  0  0  0  0  0  0  0  0  0
   23.3091   26.6046   37.2923 C   0  0  0  0  0  0  0  0  0  0  0  0
   22.0772   27.0867   37.7085 C   0  0  0  0  0  0  0  0  0  0  0  0
   21.2178   26.9677   36.6302 C   0  0  0  0  0  0  0  0  0  0  0  0
   21.8761   26.4443   35.5812 N   0  0  0  0  0  0  0  0  0  0  0  0
   23.1482   26.2435   35.9619 C   0  0  0  0  0  0  0  0  0  0  0  0
   21.3410   26.1419   34.3784 F   0  0  0  0  0  0  0  0  0  0  0  0
  1  2  1  0
  2  3  2  0
  2  4  1  0
  4  5  2  0
  5  6  1  0
  6  7  2  0
  7  8  1  0
  8  9  2  0
  9 10  1  0
 10 11  2  0
 11 12  1  0
 12 13  2  0
 13 14  1  0
  1 15  1  0
 15 16  2  0
 16 17  1  0
 17 18  2  0
 18 19  1  0
 19 20  1  0
 20 21  1  0
 21 22  1  1
 22 23  1  0
 23 24  1  0
 24 25  1  0
 25 26  2  0
 26 27  1  0
 27 28  1  0
 27 29  1  0
 13  4  1  0
 28 15  1  0
 12  7  1  0
 21 18  1  0
 28 24  2  0
M  END
>  <AAScore>  (1) 
413.9856408936311

>  <RootName>  (1) 
./4ZLY/04_DeltaGEst/trajectory_03/rank_00/lead_0242

$$$$
