confid_15
     RDKit          3D

 29 32  0  0  0  0  0  0  0  0999 V2000
   24.6900   26.1200   35.5300 N   0  0  0  0  0  0  0  0  0  0  0  0
   25.6600   25.6700   34.6600 C   0  0  0  0  0  0  0  0  0  0  0  0
   25.2400   25.0100   33.7200 O   0  0  0  0  0  0  0  0  0  0  0  0
   27.0300   26.2200   34.8800 C   0  0  0  0  0  0  0  0  0  0  0  0
   27.3500   26.7300   36.0700 N   0  0  0  0  0  0  0  0  0  0  0  0
   28.5700   27.1800   36.3300 N   0  0  0  0  0  0  0  0  0  0  0  0
   29.5300   27.1100   35.3900 C   0  0  0  0  0  0  0  0  0  0  0  0
   30.8300   27.5700   35.6500 C   0  0  0  0  0  0  0  0  0  0  0  0
   31.8500   27.5400   34.6900 C   0  0  0  0  0  0  0  0  0  0  0  0
   31.5100   27.1200   33.4000 C   0  0  0  0  0  0  0  0  0  0  0  0
   30.2200   26.6300   33.1100 C   0  0  0  0  0  0  0  0  0  0  0  0
   29.2400   26.6600   34.1000 C   0  0  0  0  0  0  0  0  0  0  0  0
   27.9300   26.2600   33.8100 C   0  0  0  0  0  0  0  0  0  0  0  0
   27.5200   25.7100   32.6100 N   0  0  0  0  0  0  0  0  0  0  0  0
   23.2796   26.1670   35.2486 C   0  0  0  0  0  0  0  0  0  0  0  0
   22.4001   25.9527   36.2612 N   0  0  0  0  0  0  0  0  0  0  0  0
   21.0574   25.9844   36.0715 C   0  0  0  0  0  0  0  0  0  0  0  0
   20.5196   26.2485   34.8010 C   0  0  0  0  0  0  0  0  0  0  0  0
   19.0200   26.3144   34.6446 C   0  0  0  0  0  0  0  0  0  0  0  0
   18.6002   25.4163   33.5488 N   0  0  0  0  0  0  0  0  0  0  0  0
   17.9927   24.1747   34.0466 C   0  0  0  0  0  0  0  0  0  0  0  0
   17.7558   26.0803   32.5343 C   0  0  0  0  0  0  0  0  0  0  0  0
   18.1650   25.6548   31.1552 C   0  0  0  0  0  0  0  0  0  0  0  0
   19.4305   25.4846   30.7360 C   0  0  0  0  0  0  0  0  0  0  0  0
   20.5909   25.5692   31.5888 N   0  0  0  0  0  0  0  0  0  0  0  0
   21.6151   24.5357   31.3969 C   0  0  0  0  0  0  0  0  0  0  0  0
   20.9287   26.8075   32.3140 C   0  0  0  0  0  0  0  0  0  0  0  0
   21.4094   26.5146   33.7270 C   0  0  0  0  0  0  0  0  0  0  0  0
   22.7934   26.4835   33.9712 C   0  0  0  0  0  0  0  0  0  0  0  0
  1  2  1  0
  2  3  2  0
  2  4  1  0
  4  5  2  0
  5  6  1  0
  6  7  2  0
  7  8  1  0
  8  9  2  0
  9 10  1  0
 10 11  2  0
 11 12  1  0
 12 13  2  0
 13 14  1  0
  1 15  1  0
 15 16  2  0
 16 17  1  0
 17 18  2  0
 18 19  1  0
 19 20  1  0
 20 21  1  0
 20 22  1  0
 22 23  1  0
 23 24  2  0
 24 25  1  0
 25 26  1  0
 25 27  1  0
 27 28  1  0
 28 29  2  0
 13  4  1  0
 29 15  1  0
 12  7  1  0
 28 18  1  0
M  END
>  <AAScore>  (1) 
315.16928486606633

>  <RootName>  (1) 
./4ZLY/04_DeltaGEst/trajectory_02/rank_00/lead_0400

$$$$
