confid_11
     RDKit          3D

 27 30  0  0  0  0  0  0  0  0999 V2000
   24.4800   26.1000   36.1300 N   0  0  0  0  0  0  0  0  0  0  0  0
   25.2500   26.2500   34.9900 C   0  0  0  0  0  0  0  0  0  0  0  0
   24.7400   25.7600   33.9900 O   0  0  0  0  0  0  0  0  0  0  0  0
   26.5900   26.8900   34.9600 C   0  0  0  0  0  0  0  0  0  0  0  0
   27.0600   27.2400   36.1600 N   0  0  0  0  0  0  0  0  0  0  0  0
   28.3000   27.7100   36.2400 N   0  0  0  0  0  0  0  0  0  0  0  0
   29.0500   27.9600   35.1500 C   0  0  0  0  0  0  0  0  0  0  0  0
   30.3400   28.4900   35.2600 C   0  0  0  0  0  0  0  0  0  0  0  0
   31.1100   28.8200   34.1400 C   0  0  0  0  0  0  0  0  0  0  0  0
   30.5200   28.6700   32.8800 C   0  0  0  0  0  0  0  0  0  0  0  0
   29.2900   28.0200   32.7700 C   0  0  0  0  0  0  0  0  0  0  0  0
   28.5200   27.7100   33.8900 C   0  0  0  0  0  0  0  0  0  0  0  0
   27.2700   27.0800   33.7600 C   0  0  0  0  0  0  0  0  0  0  0  0
   26.7500   26.8800   32.4900 N   0  0  0  0  0  0  0  0  0  0  0  0
   23.4617   25.1019   36.3280 C   0  0  0  0  0  0  0  0  0  0  0  0
   22.3945   25.3974   37.1158 N   0  0  0  0  0  0  0  0  0  0  0  0
   21.4068   24.4977   37.3805 C   0  0  0  0  0  0  0  0  0  0  0  0
   20.3117   24.8660   38.1703 O   0  0  0  0  0  0  0  0  0  0  0  0
   20.1624   26.1689   38.7216 C   0  0  0  0  0  0  0  0  0  0  0  0
   21.4850   23.1970   36.8519 C   0  0  0  0  0  0  0  0  0  0  0  0
   20.3672   22.2046   37.1000 C   0  0  0  0  0  0  0  0  0  0  0  0
   20.7733   20.8050   36.8635 N   0  0  0  0  0  0  0  0  0  0  0  0
   21.4440   20.6523   35.5581 C   0  0  0  0  0  0  0  0  0  0  0  0
   22.7374   21.4753   35.4641 C   0  0  0  0  0  0  0  0  0  0  0  0
   22.5723   22.8658   36.0184 C   0  0  0  0  0  0  0  0  0  0  0  0
   23.5739   23.8155   35.7794 C   0  0  0  0  0  0  0  0  0  0  0  0
   21.5727   20.2670   37.9786 C   0  0  0  0  0  0  0  0  0  0  0  0
  1  2  1  0
  2  3  2  0
  2  4  1  0
  4  5  2  0
  5  6  1  0
  6  7  2  0
  7  8  1  0
  8  9  2  0
  9 10  1  0
 10 11  2  0
 11 12  1  0
 12 13  2  0
 13 14  1  0
  1 15  1  0
 15 16  2  0
 16 17  1  0
 17 18  1  0
 18 19  1  0
 17 20  2  0
 20 21  1  0
 21 22  1  0
 22 23  1  0
 23 24  1  0
 24 25  1  0
 25 26  2  0
 22 27  1  0
 13  4  1  0
 26 15  1  0
 12  7  1  0
 25 20  1  0
M  END
>  <AAScore>  (1) 
500.3400883336951

>  <RootName>  (1) 
./4ZLY/04_DeltaGEst/trajectory_00/rank_00/lead_0292

$$$$
