confid_19
     RDKit          3D

 28 31  0  0  0  0  0  0  0  0999 V2000
   24.5500   26.3900   36.2500 N   0  0  0  0  0  0  0  0  0  0  0  0
   25.6000   26.1300   35.4000 C   0  0  0  0  0  0  0  0  0  0  0  0
   25.4300   25.4300   34.4200 O   0  0  0  0  0  0  0  0  0  0  0  0
   26.9800   26.6300   35.7100 C   0  0  0  0  0  0  0  0  0  0  0  0
   27.3200   26.8200   36.9800 N   0  0  0  0  0  0  0  0  0  0  0  0
   28.4700   27.4000   37.3100 N   0  0  0  0  0  0  0  0  0  0  0  0
   29.4000   27.6300   36.3700 C   0  0  0  0  0  0  0  0  0  0  0  0
   30.6600   28.0500   36.8000 C   0  0  0  0  0  0  0  0  0  0  0  0
   31.5700   28.3600   35.7800 C   0  0  0  0  0  0  0  0  0  0  0  0
   31.3700   28.1000   34.4300 C   0  0  0  0  0  0  0  0  0  0  0  0
   30.1200   27.5900   34.0500 C   0  0  0  0  0  0  0  0  0  0  0  0
   29.1500   27.3400   35.0300 C   0  0  0  0  0  0  0  0  0  0  0  0
   27.8800   26.8900   34.6600 C   0  0  0  0  0  0  0  0  0  0  0  0
   27.4800   26.6100   33.3700 N   0  0  0  0  0  0  0  0  0  0  0  0
   31.0068   28.3127   38.2195 C   0  0  0  0  0  0  0  0  0  0  0  0
   32.1839   27.7942   38.7655 C   0  0  0  0  0  0  0  0  0  0  0  0
   32.5474   28.0565   40.0997 C   0  0  0  0  0  0  0  0  0  0  0  0
   33.8708   27.5020   40.5775 C   0  0  0  0  0  0  0  0  0  0  0  0
   34.6746   28.5469   41.3578 C   0  0  0  0  0  0  0  0  0  0  0  0
   34.3275   28.6265   42.7960 N   0  0  0  0  0  0  0  0  0  0  0  0
   35.2365   27.7881   43.5977 C   0  0  0  0  0  0  0  0  0  0  0  0
   32.9213   28.2988   43.1287 C   0  0  0  0  0  0  0  0  0  0  0  0
   31.8621   29.1720   42.3941 C   0  0  0  0  0  0  0  0  0  0  0  0
   32.2112   30.6701   42.5336 C   0  0  0  0  0  0  0  0  0  0  0  0
   30.5137   28.9331   43.1243 C   0  0  0  0  0  0  0  0  0  0  0  0
   31.6586   28.8286   40.9070 C   0  0  0  0  0  0  0  0  0  0  0  0
   30.5411   29.3449   40.3158 N   0  0  0  0  0  0  0  0  0  0  0  0
   30.2014   29.1188   39.0237 C   0  0  0  0  0  0  0  0  0  0  0  0
  1  2  1  0
  2  3  2  0
  2  4  1  0
  4  5  2  0
  5  6  1  0
  6  7  2  0
  7  8  1  0
  8  9  2  0
  9 10  1  0
 10 11  2  0
 11 12  1  0
 12 13  2  0
 13 14  1  0
  8 15  1  0
 15 16  2  0
 16 17  1  0
 17 18  1  0
 18 19  1  0
 19 20  1  0
 20 21  1  0
 20 22  1  0
 22 23  1  0
 23 24  1  0
 23 25  1  0
 23 26  1  0
 26 27  1  0
 27 28  2  0
 13  4  1  0
 28 15  1  0
 12  7  1  0
 26 17  2  0
M  END
>  <AAScore>  (1) 
828.3901877594876

>  <RootName>  (1) 
./4ZLY/04_DeltaGEst/trajectory_01/rank_01/lead_0328

$$$$
