confid_19
     RDKit          3D

 27 30  0  0  0  0  0  0  0  0999 V2000
   24.4800   26.1000   36.1300 N   0  0  0  0  0  0  0  0  0  0  0  0
   25.2500   26.2500   34.9900 C   0  0  0  0  0  0  0  0  0  0  0  0
   24.7400   25.7600   33.9900 O   0  0  0  0  0  0  0  0  0  0  0  0
   26.5900   26.8900   34.9600 C   0  0  0  0  0  0  0  0  0  0  0  0
   27.0600   27.2400   36.1600 N   0  0  0  0  0  0  0  0  0  0  0  0
   28.3000   27.7100   36.2400 N   0  0  0  0  0  0  0  0  0  0  0  0
   29.0500   27.9600   35.1500 C   0  0  0  0  0  0  0  0  0  0  0  0
   30.3400   28.4900   35.2600 C   0  0  0  0  0  0  0  0  0  0  0  0
   31.1100   28.8200   34.1400 C   0  0  0  0  0  0  0  0  0  0  0  0
   30.5200   28.6700   32.8800 C   0  0  0  0  0  0  0  0  0  0  0  0
   29.2900   28.0200   32.7700 C   0  0  0  0  0  0  0  0  0  0  0  0
   28.5200   27.7100   33.8900 C   0  0  0  0  0  0  0  0  0  0  0  0
   27.2700   27.0800   33.7600 C   0  0  0  0  0  0  0  0  0  0  0  0
   26.7500   26.8800   32.4900 N   0  0  0  0  0  0  0  0  0  0  0  0
   23.5157   25.0560   36.3560 C   0  0  0  0  0  0  0  0  0  0  0  0
   22.4547   25.3029   37.1849 N   0  0  0  0  0  0  0  0  0  0  0  0
   21.5181   24.3539   37.4705 C   0  0  0  0  0  0  0  0  0  0  0  0
   21.6564   23.0860   36.9091 C   0  0  0  0  0  0  0  0  0  0  0  0
   20.7754   21.8971   37.0539 C   0  0  1  0  0  0  0  0  0  0  0  0
   19.4242   22.1727   36.3525 C   0  0  0  0  0  0  0  0  0  0  0  0
   18.4917   21.1675   36.6925 O   0  0  0  0  0  0  0  0  0  0  0  0
   17.3185   21.3365   35.9294 C   0  0  0  0  0  0  0  0  0  0  0  0
   21.5855   20.7878   36.4687 N   0  0  0  0  0  0  0  0  0  0  0  0
   20.8653   19.7165   35.7632 C   0  0  0  0  0  0  0  0  0  0  0  0
   22.6522   21.3976   35.6467 C   0  0  0  0  0  0  0  0  0  0  0  0
   22.7136   22.8038   36.0981 C   0  0  0  0  0  0  0  0  0  0  0  0
   23.6746   23.7679   35.7980 C   0  0  0  0  0  0  0  0  0  0  0  0
  1  2  1  0
  2  3  2  0
  2  4  1  0
  4  5  2  0
  5  6  1  0
  6  7  2  0
  7  8  1  0
  8  9  2  0
  9 10  1  0
 10 11  2  0
 11 12  1  0
 12 13  2  0
 13 14  1  0
  1 15  1  0
 15 16  2  0
 16 17  1  0
 17 18  2  0
 18 19  1  0
 19 20  1  6
 20 21  1  0
 21 22  1  0
 19 23  1  0
 23 24  1  0
 23 25  1  0
 25 26  1  0
 26 27  2  0
 13  4  1  0
 27 15  1  0
 12  7  1  0
 26 18  1  0
M  END
>  <AAScore>  (1) 
698.6154172746185

>  <RootName>  (1) 
./4ZLY/04_DeltaGEst/trajectory_00/rank_00/lead_0120

$$$$
