confid_18
     RDKit          3D

 27 30  0  0  0  0  0  0  0  0999 V2000
   25.3300   26.2600   34.7600 N   0  0  0  0  0  0  0  0  0  0  0  0
   26.1200   25.9200   33.6900 C   0  0  0  0  0  0  0  0  0  0  0  0
   25.6300   25.1100   32.9400 O   0  0  0  0  0  0  0  0  0  0  0  0
   27.5200   26.3800   33.4600 C   0  0  0  0  0  0  0  0  0  0  0  0
   28.1600   26.6300   34.6100 N   0  0  0  0  0  0  0  0  0  0  0  0
   29.4800   26.8500   34.5700 N   0  0  0  0  0  0  0  0  0  0  0  0
   30.1900   26.7800   33.4400 C   0  0  0  0  0  0  0  0  0  0  0  0
   31.5600   27.0500   33.5000 C   0  0  0  0  0  0  0  0  0  0  0  0
   32.2700   27.2400   32.3100 C   0  0  0  0  0  0  0  0  0  0  0  0
   31.6100   27.2500   31.0800 C   0  0  0  0  0  0  0  0  0  0  0  0
   30.2700   26.8700   31.0600 C   0  0  0  0  0  0  0  0  0  0  0  0
   29.5100   26.6900   32.2300 C   0  0  0  0  0  0  0  0  0  0  0  0
   28.1400   26.4100   32.2000 C   0  0  0  0  0  0  0  0  0  0  0  0
   27.4300   26.1300   31.0500 N   0  0  0  0  0  0  0  0  0  0  0  0
   24.1916   25.5281   35.2493 C   0  0  0  0  0  0  0  0  0  0  0  0
   23.3520   26.0384   36.1766 N   0  0  0  0  0  0  0  0  0  0  0  0
   22.3773   25.1561   36.5301 C   0  0  0  0  0  0  0  0  0  0  0  0
   21.3143   25.5290   37.5340 C   0  0  0  0  0  0  0  0  0  0  0  0
   20.0739   26.0950   36.9447 N   0  0  0  0  0  0  0  0  0  0  0  0
   20.1035   26.5405   35.5417 C   0  0  0  0  0  0  0  0  0  0  0  0
   18.8034   25.4839   37.3938 C   0  0  0  0  0  0  0  0  0  0  0  0
   18.3093   24.2959   36.5396 C   0  0  0  0  0  0  0  0  0  0  0  0
   19.2282   23.0722   36.5887 C   0  0  0  0  0  0  0  0  0  0  0  0
   20.2232   23.2000   35.5917 O   0  0  0  0  0  0  0  0  0  0  0  0
   21.4989   22.7770   36.0286 C   0  0  0  0  0  0  0  0  0  0  0  0
   22.4504   23.9197   35.8827 C   0  0  0  0  0  0  0  0  0  0  0  0
   23.7715   23.9450   34.8416 S   0  0  0  0  0  0  0  0  0  0  0  0
  1  2  1  0
  2  3  2  0
  2  4  1  0
  4  5  2  0
  5  6  1  0
  6  7  2  0
  7  8  1  0
  8  9  2  0
  9 10  1  0
 10 11  2  0
 11 12  1  0
 12 13  2  0
 13 14  1  0
  1 15  1  0
 15 16  2  0
 16 17  1  0
 17 18  1  0
 18 19  1  0
 19 20  1  0
 19 21  1  0
 21 22  1  0
 22 23  1  0
 23 24  1  0
 24 25  1  0
 25 26  1  0
 26 27  1  0
 13  4  1  0
 27 15  1  0
 12  7  1  0
 26 17  2  0
M  END
>  <AAScore>  (1) 
2569.325771977597

>  <RootName>  (1) 
./4ZLY/04_DeltaGEst/trajectory_03/rank_00/lead_0328

$$$$
