confid_0
     RDKit          3D

 29 32  0  0  0  0  0  0  0  0999 V2000
   24.5500   26.3900   36.2500 N   0  0  0  0  0  0  0  0  0  0  0  0
   25.6000   26.1300   35.4000 C   0  0  0  0  0  0  0  0  0  0  0  0
   25.4300   25.4300   34.4200 O   0  0  0  0  0  0  0  0  0  0  0  0
   26.9800   26.6300   35.7100 C   0  0  0  0  0  0  0  0  0  0  0  0
   27.3200   26.8200   36.9800 N   0  0  0  0  0  0  0  0  0  0  0  0
   28.4700   27.4000   37.3100 N   0  0  0  0  0  0  0  0  0  0  0  0
   29.4000   27.6300   36.3700 C   0  0  0  0  0  0  0  0  0  0  0  0
   30.6600   28.0500   36.8000 C   0  0  0  0  0  0  0  0  0  0  0  0
   31.5700   28.3600   35.7800 C   0  0  0  0  0  0  0  0  0  0  0  0
   31.3700   28.1000   34.4300 C   0  0  0  0  0  0  0  0  0  0  0  0
   30.1200   27.5900   34.0500 C   0  0  0  0  0  0  0  0  0  0  0  0
   29.1500   27.3400   35.0300 C   0  0  0  0  0  0  0  0  0  0  0  0
   27.8800   26.8900   34.6600 C   0  0  0  0  0  0  0  0  0  0  0  0
   27.4800   26.6100   33.3700 N   0  0  0  0  0  0  0  0  0  0  0  0
   30.9978   28.2764   38.2308 C   0  0  0  0  0  0  0  0  0  0  0  0
   30.9186   27.0819   39.1009 C   0  0  0  0  0  0  0  0  0  0  0  0
   31.0618   27.0312   40.4216 C   0  0  0  0  0  0  0  0  0  0  0  0
   30.8798   25.7767   41.2205 C   0  0  0  0  0  0  0  0  0  0  0  0
   31.0941   26.2304   42.5898 N   0  0  0  0  0  0  0  0  0  0  0  0
   31.0459   25.4085   43.7656 C   0  0  0  0  0  0  0  0  0  0  0  0
   31.2702   25.9219   44.8957 O   0  0  0  0  0  0  0  0  0  0  0  0
   30.7355   23.9431   43.6580 C   0  0  0  0  0  0  0  0  0  0  0  0
   30.7099   23.3545   44.9422 O   0  0  0  0  0  0  0  0  0  0  0  0
   30.4212   21.9799   44.8199 C   0  0  0  0  0  0  0  0  0  0  0  0
   31.3949   27.6219   42.5765 C   0  0  0  0  0  0  0  0  0  0  0  0
   31.3787   28.1043   41.3484 C   0  0  0  0  0  0  0  0  0  0  0  0
   31.7411   29.4476   41.0507 N   0  0  0  0  0  0  0  0  0  0  0  0
   31.7592   30.0609   39.9099 C   0  0  0  0  0  0  0  0  0  0  0  0
   31.3549   29.5235   38.5952 C   0  0  0  0  0  0  0  0  0  0  0  0
  1  2  1  0
  2  3  2  0
  2  4  1  0
  4  5  2  0
  5  6  1  0
  6  7  2  0
  7  8  1  0
  8  9  2  0
  9 10  1  0
 10 11  2  0
 11 12  1  0
 12 13  2  0
 13 14  1  0
  8 15  1  0
 15 16  1  0
 16 17  2  0
 17 18  1  0
 18 19  1  0
 19 20  1  0
 20 21  2  0
 20 22  1  0
 22 23  1  0
 23 24  1  0
 19 25  1  0
 25 26  2  0
 26 27  1  0
 27 28  2  0
 28 29  1  0
 13  4  1  0
 29 15  2  0
 12  7  1  0
 26 17  1  0
M  END
>  <AAScore>  (1) 
31.12254933662061

>  <RootName>  (1) 
./4ZLY/04_DeltaGEst/trajectory_01/rank_01/lead_0090

$$$$
