confid_2
     RDKit          3D

 27 30  0  0  0  0  0  0  0  0999 V2000
   24.2000   26.2400   35.6900 N   0  0  0  0  0  0  0  0  0  0  0  0
   24.8500   26.2800   34.4800 C   0  0  0  0  0  0  0  0  0  0  0  0
   24.3100   25.7400   33.5400 O   0  0  0  0  0  0  0  0  0  0  0  0
   26.1800   26.9700   34.4700 C   0  0  0  0  0  0  0  0  0  0  0  0
   26.6500   27.6000   35.5500 N   0  0  0  0  0  0  0  0  0  0  0  0
   27.7900   28.2700   35.6200 N   0  0  0  0  0  0  0  0  0  0  0  0
   28.5400   28.3000   34.5100 C   0  0  0  0  0  0  0  0  0  0  0  0
   29.7700   28.9400   34.5600 C   0  0  0  0  0  0  0  0  0  0  0  0
   30.7000   28.8900   33.5000 C   0  0  0  0  0  0  0  0  0  0  0  0
   30.3700   28.1400   32.3700 C   0  0  0  0  0  0  0  0  0  0  0  0
   29.1200   27.5200   32.2800 C   0  0  0  0  0  0  0  0  0  0  0  0
   28.2100   27.6100   33.3300 C   0  0  0  0  0  0  0  0  0  0  0  0
   26.9700   26.9700   33.3100 C   0  0  0  0  0  0  0  0  0  0  0  0
   26.5300   26.2400   32.2200 N   0  0  0  0  0  0  0  0  0  0  0  0
   30.1515   29.6852   35.7282 N   0  0  0  0  0  0  0  0  0  0  0  0
   31.3106   30.4927   36.1481 C   0  0  0  0  0  0  0  0  0  0  0  0
   30.7889   30.8441   37.5184 C   0  0  0  0  0  0  0  0  0  0  0  0
   30.5270   32.3182   37.8169 C   0  0  0  0  0  0  0  0  0  0  0  0
   31.3736   33.3071   37.2711 C   0  0  0  0  0  0  0  0  0  0  0  0
   31.1593   34.6726   37.5319 C   0  0  0  0  0  0  0  0  0  0  0  0
   31.9589   35.6818   36.9738 O   0  0  0  0  0  0  0  0  0  0  0  0
   33.0497   35.4498   36.0884 C   0  0  0  0  0  0  0  0  0  0  0  0
   30.1180   35.0494   38.3789 C   0  0  0  0  0  0  0  0  0  0  0  0
   29.3253   34.0853   38.9976 C   0  0  0  0  0  0  0  0  0  0  0  0
   29.5438   32.7183   38.7644 C   0  0  0  0  0  0  0  0  0  0  0  0
   28.7075   31.7268   39.5337 C   0  0  0  0  0  0  0  0  0  0  0  0
   29.5935   30.0675   37.0387 C   0  0  0  0  0  0  0  0  0  0  0  0
  1  2  1  0
  2  3  2  0
  2  4  1  0
  4  5  2  0
  5  6  1  0
  6  7  2  0
  7  8  1  0
  8  9  2  0
  9 10  1  0
 10 11  2  0
 11 12  1  0
 12 13  2  0
 13 14  1  0
  8 15  1  0
 15 16  1  0
 16 17  1  0
 17 18  1  0
 18 19  2  0
 19 20  1  0
 20 21  1  0
 21 22  1  0
 20 23  2  0
 23 24  1  0
 24 25  2  0
 25 26  1  0
 17 27  1  0
 13  4  1  0
 27 15  1  0
 12  7  1  0
 25 18  1  0
M  END
>  <AAScore>  (1) 
-6.979754058934121

>  <RootName>  (1) 
./4ZLY/04_DeltaGEst/trajectory_04/rank_01/lead_0039

$$$$
