confid_1
     RDKit          3D

 29 33  0  0  0  0  0  0  0  0999 V2000
   24.6900   26.1200   35.5300 N   0  0  0  0  0  0  0  0  0  0  0  0
   25.6600   25.6700   34.6600 C   0  0  0  0  0  0  0  0  0  0  0  0
   25.2400   25.0100   33.7200 O   0  0  0  0  0  0  0  0  0  0  0  0
   27.0300   26.2200   34.8800 C   0  0  0  0  0  0  0  0  0  0  0  0
   27.3500   26.7300   36.0700 N   0  0  0  0  0  0  0  0  0  0  0  0
   28.5700   27.1800   36.3300 N   0  0  0  0  0  0  0  0  0  0  0  0
   29.5300   27.1100   35.3900 C   0  0  0  0  0  0  0  0  0  0  0  0
   30.8300   27.5700   35.6500 C   0  0  0  0  0  0  0  0  0  0  0  0
   31.8500   27.5400   34.6900 C   0  0  0  0  0  0  0  0  0  0  0  0
   31.5100   27.1200   33.4000 C   0  0  0  0  0  0  0  0  0  0  0  0
   30.2200   26.6300   33.1100 C   0  0  0  0  0  0  0  0  0  0  0  0
   29.2400   26.6600   34.1000 C   0  0  0  0  0  0  0  0  0  0  0  0
   27.9300   26.2600   33.8100 C   0  0  0  0  0  0  0  0  0  0  0  0
   27.5200   25.7100   32.6100 N   0  0  0  0  0  0  0  0  0  0  0  0
   23.3384   26.4518   35.1465 C   0  0  0  0  0  0  0  0  0  0  0  0
   23.0822   26.6361   33.8775 N   0  0  0  0  0  0  0  0  0  0  0  0
   21.9124   26.9364   33.0980 C   0  0  0  0  0  0  0  0  0  0  0  0
   20.6856   26.5484   33.4231 C   0  0  0  0  0  0  0  0  0  0  0  0
   19.4938   26.0248   32.6722 C   0  0  0  0  0  0  0  0  0  0  0  0
   18.8460   25.5272   33.7988 O   0  0  0  0  0  0  0  0  0  0  0  0
   19.8441   26.1046   34.5749 C   0  0  1  0  0  0  0  0  0  0  0  0
   20.5835   25.1297   35.4870 C   0  0  0  0  0  0  0  0  0  0  0  0
   21.2517   25.9730   36.5362 C   0  0  0  0  0  0  0  0  0  0  0  0
   20.5681   26.2000   37.7435 C   0  0  0  0  0  0  0  0  0  0  0  0
   21.0208   27.1594   38.6455 C   0  0  0  0  0  0  0  0  0  0  0  0
   22.1511   27.9129   38.3291 C   0  0  0  0  0  0  0  0  0  0  0  0
   22.8125   27.6741   37.1668 N   0  0  0  0  0  0  0  0  0  0  0  0
   22.3970   26.7548   36.2506 C   0  0  0  0  0  0  0  0  0  0  0  0
   22.6725   28.9365   39.2859 C   0  0  0  0  0  0  0  0  0  0  0  0
  1  2  1  0
  2  3  2  0
  2  4  1  0
  4  5  2  0
  5  6  1  0
  6  7  2  0
  7  8  1  0
  8  9  2  0
  9 10  1  0
 10 11  2  0
 11 12  1  0
 12 13  2  0
 13 14  1  0
  1 15  1  0
 15 16  2  0
 16 17  1  0
 17 18  2  0
 18 19  1  0
 19 20  1  0
 20 21  1  0
 21 22  1  1
 22 23  1  0
 23 24  2  0
 24 25  1  0
 25 26  2  0
 26 27  1  0
 27 28  2  0
 26 29  1  0
 13  4  1  0
 28 15  1  0
 12  7  1  0
 21 18  1  0
 28 23  1  0
M  END
>  <AAScore>  (1) 
2401.544323208616

>  <RootName>  (1) 
./4ZLY/04_DeltaGEst/trajectory_02/rank_00/lead_0006

$$$$
