confid_9
     RDKit          3D

 32 36  0  0  0  0  0  0  0  0999 V2000
   25.3300   26.2600   34.7600 N   0  0  0  0  0  0  0  0  0  0  0  0
   26.1200   25.9200   33.6900 C   0  0  0  0  0  0  0  0  0  0  0  0
   25.6300   25.1100   32.9400 O   0  0  0  0  0  0  0  0  0  0  0  0
   27.5200   26.3800   33.4600 C   0  0  0  0  0  0  0  0  0  0  0  0
   28.1600   26.6300   34.6100 N   0  0  0  0  0  0  0  0  0  0  0  0
   29.4800   26.8500   34.5700 N   0  0  0  0  0  0  0  0  0  0  0  0
   30.1900   26.7800   33.4400 C   0  0  0  0  0  0  0  0  0  0  0  0
   31.5600   27.0500   33.5000 C   0  0  0  0  0  0  0  0  0  0  0  0
   32.2700   27.2400   32.3100 C   0  0  0  0  0  0  0  0  0  0  0  0
   31.6100   27.2500   31.0800 C   0  0  0  0  0  0  0  0  0  0  0  0
   30.2700   26.8700   31.0600 C   0  0  0  0  0  0  0  0  0  0  0  0
   29.5100   26.6900   32.2300 C   0  0  0  0  0  0  0  0  0  0  0  0
   28.1400   26.4100   32.2000 C   0  0  0  0  0  0  0  0  0  0  0  0
   27.4300   26.1300   31.0500 N   0  0  0  0  0  0  0  0  0  0  0  0
   24.9876   25.3127   35.7904 C   0  0  0  0  0  0  0  0  0  0  0  0
   23.9728   25.6364   36.5283 N   0  0  0  0  0  0  0  0  0  0  0  0
   23.0751   24.8238   37.2980 C   0  0  0  0  0  0  0  0  0  0  0  0
   22.5568   23.6752   36.7976 C   0  0  0  0  0  0  0  0  0  0  0  0
   21.4532   22.7079   37.1294 C   0  0  0  0  0  0  0  0  0  0  0  0
   21.6914   21.9008   36.0113 O   0  0  0  0  0  0  0  0  0  0  0  0
   22.6597   22.8030   35.5929 C   0  0  2  0  0  0  0  0  0  0  0  0
   24.0167   22.0915   35.5176 C   0  0  0  0  0  0  0  0  0  0  0  0
   25.1046   22.9849   34.9623 C   0  0  0  0  0  0  0  0  0  0  0  0
   25.5981   23.9253   35.8063 C   0  0  0  0  0  0  0  0  0  0  0  0
   26.9332   23.6942   36.3594 N   0  0  0  0  0  0  0  0  0  0  0  0
   27.7958   22.8304   35.5655 C   0  0  0  0  0  0  0  0  0  0  0  0
   28.5343   21.9679   36.1159 O   0  0  0  0  0  0  0  0  0  0  0  0
   27.5147   22.8092   34.1260 C   0  0  0  0  0  0  0  0  0  0  0  0
   26.0724   22.2945   33.9859 C   0  0  0  0  0  0  0  0  0  0  0  0
   27.4063   24.3098   37.6420 C   0  0  0  0  0  0  0  0  0  0  0  0
   26.4627   23.9405   38.7881 C   0  0  0  0  0  0  0  0  0  0  0  0
   28.8706   23.9545   37.9940 C   0  0  0  0  0  0  0  0  0  0  0  0
  1  2  1  0
  2  3  2  0
  2  4  1  0
  4  5  2  0
  5  6  1  0
  6  7  2  0
  7  8  1  0
  8  9  2  0
  9 10  1  0
 10 11  2  0
 11 12  1  0
 12 13  2  0
 13 14  1  0
  1 15  1  0
 15 16  2  0
 16 17  1  0
 17 18  2  0
 18 19  1  0
 19 20  1  0
 20 21  1  0
 21 22  1  1
 22 23  1  0
 23 24  2  0
 24 25  1  0
 25 26  1  0
 26 27  2  0
 26 28  1  0
 28 29  1  0
 25 30  1  0
 30 31  1  0
 30 32  1  0
 13  4  1  0
 24 15  1  0
 12  7  1  0
 21 18  1  0
 29 23  1  0
M  END
>  <AAScore>  (1) 
444.5659085109608

>  <RootName>  (1) 
./4ZLY/04_DeltaGEst/trajectory_03/rank_00/lead_0303

$$$$
