confid_15
     RDKit          3D

 27 30  0  0  0  0  0  0  0  0999 V2000
   24.5500   26.3900   36.2500 N   0  0  0  0  0  0  0  0  0  0  0  0
   25.6000   26.1300   35.4000 C   0  0  0  0  0  0  0  0  0  0  0  0
   25.4300   25.4300   34.4200 O   0  0  0  0  0  0  0  0  0  0  0  0
   26.9800   26.6300   35.7100 C   0  0  0  0  0  0  0  0  0  0  0  0
   27.3200   26.8200   36.9800 N   0  0  0  0  0  0  0  0  0  0  0  0
   28.4700   27.4000   37.3100 N   0  0  0  0  0  0  0  0  0  0  0  0
   29.4000   27.6300   36.3700 C   0  0  0  0  0  0  0  0  0  0  0  0
   30.6600   28.0500   36.8000 C   0  0  0  0  0  0  0  0  0  0  0  0
   31.5700   28.3600   35.7800 C   0  0  0  0  0  0  0  0  0  0  0  0
   31.3700   28.1000   34.4300 C   0  0  0  0  0  0  0  0  0  0  0  0
   30.1200   27.5900   34.0500 C   0  0  0  0  0  0  0  0  0  0  0  0
   29.1500   27.3400   35.0300 C   0  0  0  0  0  0  0  0  0  0  0  0
   27.8800   26.8900   34.6600 C   0  0  0  0  0  0  0  0  0  0  0  0
   27.4800   26.6100   33.3700 N   0  0  0  0  0  0  0  0  0  0  0  0
   31.0176   28.2808   38.2221 C   0  0  0  0  0  0  0  0  0  0  0  0
   30.6240   27.4799   39.3099 C   0  0  0  0  0  0  0  0  0  0  0  0
   31.1649   27.9583   40.4977 C   0  0  0  0  0  0  0  0  0  0  0  0
   31.1441   27.5183   41.9124 C   0  0  0  0  0  0  0  0  0  0  0  0
   32.0621   28.5986   42.5912 C   0  0  1  0  0  0  0  0  0  0  0  0
   31.2947   29.3359   43.4797 F   0  0  0  0  0  0  0  0  0  0  0  0
   33.2694   27.9959   43.3467 C   0  0  0  0  0  0  0  0  0  0  0  0
   34.4622   27.8419   42.4783 N   0  0  0  0  0  0  0  0  0  0  0  0
   34.4087   26.5933   41.6978 C   0  0  0  0  0  0  0  0  0  0  0  0
   35.6871   27.8499   43.2960 C   0  0  0  0  0  0  0  0  0  0  0  0
   32.5028   29.4681   41.5356 O   0  0  0  0  0  0  0  0  0  0  0  0
   31.9397   29.0352   40.3611 C   0  0  0  0  0  0  0  0  0  0  0  0
   32.0473   29.5345   38.7696 S   0  0  0  0  0  0  0  0  0  0  0  0
  1  2  1  0
  2  3  2  0
  2  4  1  0
  4  5  2  0
  5  6  1  0
  6  7  2  0
  7  8  1  0
  8  9  2  0
  9 10  1  0
 10 11  2  0
 11 12  1  0
 12 13  2  0
 13 14  1  0
  8 15  1  0
 15 16  2  0
 16 17  1  0
 17 18  1  0
 18 19  1  0
 19 20  1  1
 19 21  1  0
 21 22  1  0
 22 23  1  0
 22 24  1  0
 19 25  1  0
 25 26  1  0
 26 27  1  0
 13  4  1  0
 27 15  1  0
 12  7  1  0
 26 17  2  0
M  END
>  <AAScore>  (1) 
341.3721902897349

>  <RootName>  (1) 
./4ZLY/04_DeltaGEst/trajectory_01/rank_01/lead_0454

$$$$
