confid_9
     RDKit          3D

 27 30  0  0  0  0  0  0  0  0999 V2000
   24.6900   26.1200   35.5300 N   0  0  0  0  0  0  0  0  0  0  0  0
   25.6600   25.6700   34.6600 C   0  0  0  0  0  0  0  0  0  0  0  0
   25.2400   25.0100   33.7200 O   0  0  0  0  0  0  0  0  0  0  0  0
   27.0300   26.2200   34.8800 C   0  0  0  0  0  0  0  0  0  0  0  0
   27.3500   26.7300   36.0700 N   0  0  0  0  0  0  0  0  0  0  0  0
   28.5700   27.1800   36.3300 N   0  0  0  0  0  0  0  0  0  0  0  0
   29.5300   27.1100   35.3900 C   0  0  0  0  0  0  0  0  0  0  0  0
   30.8300   27.5700   35.6500 C   0  0  0  0  0  0  0  0  0  0  0  0
   31.8500   27.5400   34.6900 C   0  0  0  0  0  0  0  0  0  0  0  0
   31.5100   27.1200   33.4000 C   0  0  0  0  0  0  0  0  0  0  0  0
   30.2200   26.6300   33.1100 C   0  0  0  0  0  0  0  0  0  0  0  0
   29.2400   26.6600   34.1000 C   0  0  0  0  0  0  0  0  0  0  0  0
   27.9300   26.2600   33.8100 C   0  0  0  0  0  0  0  0  0  0  0  0
   27.5200   25.7100   32.6100 N   0  0  0  0  0  0  0  0  0  0  0  0
   31.1486   28.0785   36.9561 N   0  0  0  0  0  0  0  0  0  0  0  0
   31.2757   27.1531   38.0904 C   0  0  0  0  0  0  0  0  0  0  0  0
   30.7898   27.7790   39.4062 C   0  0  0  0  0  0  0  0  0  0  0  0
   29.4396   28.4171   39.2526 C   0  0  0  0  0  0  0  0  0  0  0  0
   28.0715   27.8867   40.0732 S   0  0  0  0  0  0  0  0  0  0  0  0
   27.0135   28.9950   39.3998 C   0  0  0  0  0  0  0  0  0  0  0  0
   25.6043   29.0402   39.6857 C   0  0  0  0  0  0  0  0  0  0  0  0
   24.4707   29.0764   39.9150 N   0  0  0  0  0  0  0  0  0  0  0  0
   27.7102   29.8188   38.5155 C   0  0  0  0  0  0  0  0  0  0  0  0
   27.0464   30.8886   37.6923 C   0  0  0  0  0  0  0  0  0  0  0  0
   29.0819   29.4843   38.4067 C   0  0  0  0  0  0  0  0  0  0  0  0
   30.0100   30.2138   37.4469 C   0  0  0  0  0  0  0  0  0  0  0  0
   31.3442   29.5196   37.1418 C   0  0  0  0  0  0  0  0  0  0  0  0
  1  2  1  0
  2  3  2  0
  2  4  1  0
  4  5  2  0
  5  6  1  0
  6  7  2  0
  7  8  1  0
  8  9  2  0
  9 10  1  0
 10 11  2  0
 11 12  1  0
 12 13  2  0
 13 14  1  0
  8 15  1  0
 15 16  1  0
 16 17  1  0
 17 18  1  0
 18 19  1  0
 19 20  1  0
 20 21  1  0
 21 22  3  0
 20 23  2  0
 23 24  1  0
 23 25  1  0
 25 26  1  0
 26 27  1  0
 13  4  1  0
 27 15  1  0
 12  7  1  0
 25 18  2  0
M  END
>  <AAScore>  (1) 
-5.999113111154568

>  <RootName>  (1) 
./4ZLY/04_DeltaGEst/trajectory_02/rank_01/lead_0242

$$$$
