confid_12
     RDKit          3D

 27 31  0  0  0  0  0  0  0  0999 V2000
   24.2000   26.2400   35.6900 N   0  0  0  0  0  0  0  0  0  0  0  0
   24.8500   26.2800   34.4800 C   0  0  0  0  0  0  0  0  0  0  0  0
   24.3100   25.7400   33.5400 O   0  0  0  0  0  0  0  0  0  0  0  0
   26.1800   26.9700   34.4700 C   0  0  0  0  0  0  0  0  0  0  0  0
   26.6500   27.6000   35.5500 N   0  0  0  0  0  0  0  0  0  0  0  0
   27.7900   28.2700   35.6200 N   0  0  0  0  0  0  0  0  0  0  0  0
   28.5400   28.3000   34.5100 C   0  0  0  0  0  0  0  0  0  0  0  0
   29.7700   28.9400   34.5600 C   0  0  0  0  0  0  0  0  0  0  0  0
   30.7000   28.8900   33.5000 C   0  0  0  0  0  0  0  0  0  0  0  0
   30.3700   28.1400   32.3700 C   0  0  0  0  0  0  0  0  0  0  0  0
   29.1200   27.5200   32.2800 C   0  0  0  0  0  0  0  0  0  0  0  0
   28.2100   27.6100   33.3300 C   0  0  0  0  0  0  0  0  0  0  0  0
   26.9700   26.9700   33.3100 C   0  0  0  0  0  0  0  0  0  0  0  0
   26.5300   26.2400   32.2200 N   0  0  0  0  0  0  0  0  0  0  0  0
   22.7792   26.0813   35.8475 C   0  0  0  0  0  0  0  0  0  0  0  0
   21.9345   26.1726   34.7468 N   0  0  0  0  0  0  0  0  0  0  0  0
   20.5688   26.0497   34.8261 C   0  0  0  0  0  0  0  0  0  0  0  0
   20.0597   25.8386   36.0842 C   0  0  0  0  0  0  0  0  0  0  0  0
   18.8826   25.6018   36.9764 C   0  0  2  0  0  0  0  0  0  0  0  0
   17.9107   26.7926   37.0626 C   0  0  0  0  0  0  0  0  0  0  0  0
   17.0158   26.8122   35.8871 N   0  0  0  0  0  0  0  0  0  0  0  0
   17.5371   27.6400   34.7875 C   0  0  0  0  0  0  0  0  0  0  0  0
   16.4324   28.6677   34.9226 C   0  0  0  0  0  0  0  0  0  0  0  0
   15.9325   27.7933   36.0544 C   0  0  0  0  0  0  0  0  0  0  0  0
   19.7960   25.5075   38.1111 C   0  0  0  0  0  0  0  0  0  0  0  0
   20.9359   25.7465   37.1820 C   0  0  0  0  0  0  0  0  0  0  0  0
   22.2725   25.8633   37.1098 N   0  0  0  0  0  0  0  0  0  0  0  0
  1  2  1  0
  2  3  2  0
  2  4  1  0
  4  5  2  0
  5  6  1  0
  6  7  2  0
  7  8  1  0
  8  9  2  0
  9 10  1  0
 10 11  2  0
 11 12  1  0
 12 13  2  0
 13 14  1  0
  1 15  1  0
 15 16  2  0
 16 17  1  0
 17 18  2  0
 18 19  1  0
 19 20  1  1
 20 21  1  0
 21 22  1  0
 22 23  1  0
 23 24  1  0
 19 25  1  0
 25 26  1  0
 26 27  2  0
 13  4  1  0
 27 15  1  0
 12  7  1  0
 26 18  1  0
 24 21  1  0
M  END
>  <AAScore>  (1) 
105.35203054972482

>  <RootName>  (1) 
./4ZLY/04_DeltaGEst/trajectory_04/rank_00/lead_0472

$$$$
