confid_17
     RDKit          3D

 27 31  0  0  0  0  0  0  0  0999 V2000
   24.5500   26.3900   36.2500 N   0  0  0  0  0  0  0  0  0  0  0  0
   25.6000   26.1300   35.4000 C   0  0  0  0  0  0  0  0  0  0  0  0
   25.4300   25.4300   34.4200 O   0  0  0  0  0  0  0  0  0  0  0  0
   26.9800   26.6300   35.7100 C   0  0  0  0  0  0  0  0  0  0  0  0
   27.3200   26.8200   36.9800 N   0  0  0  0  0  0  0  0  0  0  0  0
   28.4700   27.4000   37.3100 N   0  0  0  0  0  0  0  0  0  0  0  0
   29.4000   27.6300   36.3700 C   0  0  0  0  0  0  0  0  0  0  0  0
   30.6600   28.0500   36.8000 C   0  0  0  0  0  0  0  0  0  0  0  0
   31.5700   28.3600   35.7800 C   0  0  0  0  0  0  0  0  0  0  0  0
   31.3700   28.1000   34.4300 C   0  0  0  0  0  0  0  0  0  0  0  0
   30.1200   27.5900   34.0500 C   0  0  0  0  0  0  0  0  0  0  0  0
   29.1500   27.3400   35.0300 C   0  0  0  0  0  0  0  0  0  0  0  0
   27.8800   26.8900   34.6600 C   0  0  0  0  0  0  0  0  0  0  0  0
   27.4800   26.6100   33.3700 N   0  0  0  0  0  0  0  0  0  0  0  0
   30.9939   28.2551   38.1840 N   0  0  0  0  0  0  0  0  0  0  0  0
   31.7643   27.1822   38.8249 C   0  0  0  0  0  0  0  0  0  0  0  0
   30.9697   26.5408   39.9569 C   0  0  0  0  0  0  0  0  0  0  0  0
   30.5971   27.5792   41.0138 C   0  0  0  0  0  0  0  0  0  0  0  0
   29.1440   27.7062   41.4465 C   0  0  0  0  0  0  0  0  0  0  0  0
   30.1649   27.0484   42.3711 C   0  0  0  0  0  0  0  0  0  0  0  0
   31.3518   28.7862   41.0864 O   0  0  0  0  0  0  0  0  0  0  0  0
   31.2042   29.8170   40.1517 C   0  0  0  0  0  0  0  0  0  0  0  0
   31.3289   31.1282   40.6186 C   0  0  0  0  0  0  0  0  0  0  0  0
   31.0505   32.1972   39.7705 C   0  0  0  0  0  0  0  0  0  0  0  0
   30.6759   31.9648   38.4873 N   0  0  0  0  0  0  0  0  0  0  0  0
   30.5984   30.7068   37.9787 C   0  0  0  0  0  0  0  0  0  0  0  0
   30.9046   29.5822   38.7781 C   0  0  0  0  0  0  0  0  0  0  0  0
  1  2  1  0
  2  3  2  0
  2  4  1  0
  4  5  2  0
  5  6  1  0
  6  7  2  0
  7  8  1  0
  8  9  2  0
  9 10  1  0
 10 11  2  0
 11 12  1  0
 12 13  2  0
 13 14  1  0
  8 15  1  0
 15 16  1  0
 16 17  1  0
 17 18  1  0
 18 19  1  0
 19 20  1  0
 18 21  1  0
 21 22  1  0
 22 23  2  0
 23 24  1  0
 24 25  2  0
 25 26  1  0
 26 27  2  0
 13  4  1  0
 27 15  1  0
 12  7  1  0
 20 18  1  0
 27 22  1  0
M  END
>  <AAScore>  (1) 
25.997794645173222

>  <RootName>  (1) 
./4ZLY/04_DeltaGEst/trajectory_01/rank_01/lead_0191

$$$$
