confid_6
     RDKit          3D

 28 31  0  0  0  0  0  0  0  0999 V2000
   24.5500   26.3900   36.2500 N   0  0  0  0  0  0  0  0  0  0  0  0
   25.6000   26.1300   35.4000 C   0  0  0  0  0  0  0  0  0  0  0  0
   25.4300   25.4300   34.4200 O   0  0  0  0  0  0  0  0  0  0  0  0
   26.9800   26.6300   35.7100 C   0  0  0  0  0  0  0  0  0  0  0  0
   27.3200   26.8200   36.9800 N   0  0  0  0  0  0  0  0  0  0  0  0
   28.4700   27.4000   37.3100 N   0  0  0  0  0  0  0  0  0  0  0  0
   29.4000   27.6300   36.3700 C   0  0  0  0  0  0  0  0  0  0  0  0
   30.6600   28.0500   36.8000 C   0  0  0  0  0  0  0  0  0  0  0  0
   31.5700   28.3600   35.7800 C   0  0  0  0  0  0  0  0  0  0  0  0
   31.3700   28.1000   34.4300 C   0  0  0  0  0  0  0  0  0  0  0  0
   30.1200   27.5900   34.0500 C   0  0  0  0  0  0  0  0  0  0  0  0
   29.1500   27.3400   35.0300 C   0  0  0  0  0  0  0  0  0  0  0  0
   27.8800   26.8900   34.6600 C   0  0  0  0  0  0  0  0  0  0  0  0
   27.4800   26.6100   33.3700 N   0  0  0  0  0  0  0  0  0  0  0  0
   23.1748   25.9440   35.9974 C   0  0  1  0  0  0  0  0  0  0  0  0
   22.5017   25.5322   37.3806 C   0  0  0  0  0  0  0  0  0  0  0  0
   21.0500   25.7319   37.1212 C   0  0  0  0  0  0  0  0  0  0  0  0
   19.8637   25.3498   37.8549 N   0  0  0  0  0  0  0  0  0  0  0  0
   18.7545   25.6131   36.8656 C   0  0  0  0  0  0  0  0  0  0  0  0
   18.8632   26.9427   36.0422 C   0  0  0  0  0  0  0  0  0  0  0  0
   19.8199   27.3743   35.1229 N   0  0  0  0  0  0  0  0  0  0  0  0
   19.5532   28.6394   34.8215 N   0  0  0  0  0  0  0  0  0  0  0  0
   18.4683   29.0427   35.5053 C   0  0  0  0  0  0  0  0  0  0  0  0
   18.0159   28.0052   36.2788 C   0  0  0  0  0  0  0  0  0  0  0  0
   16.9760   28.0455   37.1478 F   0  0  0  0  0  0  0  0  0  0  0  0
   20.9940   26.7120   34.4617 C   0  0  0  0  0  0  0  0  0  0  0  0
   22.4201   27.0490   35.1070 C   0  0  0  0  0  0  0  0  0  0  0  0
   19.6933   26.1594   39.0717 C   0  0  0  0  0  0  0  0  0  0  0  0
  1  2  1  0
  2  3  2  0
  2  4  1  0
  4  5  2  0
  5  6  1  0
  6  7  2  0
  7  8  1  0
  8  9  2  0
  9 10  1  0
 10 11  2  0
 11 12  1  0
 12 13  2  0
 13 14  1  0
 15  1  1  1
 15 16  1  0
 16 17  1  0
 17 18  1  0
 18 19  1  0
 19 20  1  0
 20 21  1  0
 21 22  1  0
 22 23  2  0
 23 24  1  0
 24 25  1  0
 21 26  1  0
 26 27  1  0
 18 28  1  0
 13  4  1  0
 27 15  1  0
 12  7  1  0
 24 20  2  0
M  END
>  <AAScore>  (1) 
150.48986507968723

>  <RootName>  (1) 
./4ZLY/04_DeltaGEst/trajectory_01/rank_00/lead_0182

$$$$
