confid_12
     RDKit          3D

 28 31  0  0  0  0  0  0  0  0999 V2000
   24.2000   26.2400   35.6900 N   0  0  0  0  0  0  0  0  0  0  0  0
   24.8500   26.2800   34.4800 C   0  0  0  0  0  0  0  0  0  0  0  0
   24.3100   25.7400   33.5400 O   0  0  0  0  0  0  0  0  0  0  0  0
   26.1800   26.9700   34.4700 C   0  0  0  0  0  0  0  0  0  0  0  0
   26.6500   27.6000   35.5500 N   0  0  0  0  0  0  0  0  0  0  0  0
   27.7900   28.2700   35.6200 N   0  0  0  0  0  0  0  0  0  0  0  0
   28.5400   28.3000   34.5100 C   0  0  0  0  0  0  0  0  0  0  0  0
   29.7700   28.9400   34.5600 C   0  0  0  0  0  0  0  0  0  0  0  0
   30.7000   28.8900   33.5000 C   0  0  0  0  0  0  0  0  0  0  0  0
   30.3700   28.1400   32.3700 C   0  0  0  0  0  0  0  0  0  0  0  0
   29.1200   27.5200   32.2800 C   0  0  0  0  0  0  0  0  0  0  0  0
   28.2100   27.6100   33.3300 C   0  0  0  0  0  0  0  0  0  0  0  0
   26.9700   26.9700   33.3100 C   0  0  0  0  0  0  0  0  0  0  0  0
   26.5300   26.2400   32.2200 N   0  0  0  0  0  0  0  0  0  0  0  0
   22.7710   26.1107   35.8393 C   0  0  0  0  0  0  0  0  0  0  0  0
   21.9530   26.1962   34.7563 N   0  0  0  0  0  0  0  0  0  0  0  0
   20.6025   26.0995   34.8553 C   0  0  0  0  0  0  0  0  0  0  0  0
   19.9916   25.9085   36.1041 C   0  0  0  0  0  0  0  0  0  0  0  0
   18.4832   25.9165   36.2102 C   0  0  0  0  0  0  0  0  0  0  0  0
   17.9838   24.6185   36.7183 N   0  0  0  0  0  0  0  0  0  0  0  0
   16.6404   24.3474   36.1787 C   0  0  0  0  0  0  0  0  0  0  0  0
   17.9368   24.5962   38.1973 C   0  0  0  0  0  0  0  0  0  0  0  0
   19.3274   24.3734   38.7925 C   0  0  0  0  0  0  0  0  0  0  0  0
   20.2333   25.5477   38.5751 C   0  0  0  0  0  0  0  0  0  0  0  0
   20.5316   26.2972   39.5437 O   0  0  0  0  0  0  0  0  0  0  0  0
   20.8138   25.8041   37.2459 C   0  0  0  0  0  0  0  0  0  0  0  0
   22.2076   25.9194   37.1107 C   0  0  0  0  0  0  0  0  0  0  0  0
   23.0108   25.8076   38.2029 F   0  0  0  0  0  0  0  0  0  0  0  0
  1  2  1  0
  2  3  2  0
  2  4  1  0
  4  5  2  0
  5  6  1  0
  6  7  2  0
  7  8  1  0
  8  9  2  0
  9 10  1  0
 10 11  2  0
 11 12  1  0
 12 13  2  0
 13 14  1  0
  1 15  1  0
 15 16  2  0
 16 17  1  0
 17 18  2  0
 18 19  1  0
 19 20  1  0
 20 21  1  0
 20 22  1  0
 22 23  1  0
 23 24  1  0
 24 25  2  0
 24 26  1  0
 26 27  2  0
 27 28  1  0
 13  4  1  0
 27 15  1  0
 12  7  1  0
 26 18  1  0
M  END
>  <AAScore>  (1) 
242.6613634555543

>  <RootName>  (1) 
./4ZLY/04_DeltaGEst/trajectory_04/rank_00/lead_0378

$$$$
