confid_12
     RDKit          3D

 27 30  0  0  0  0  0  0  0  0999 V2000
   24.6900   26.1200   35.5300 N   0  0  0  0  0  0  0  0  0  0  0  0
   25.6600   25.6700   34.6600 C   0  0  0  0  0  0  0  0  0  0  0  0
   25.2400   25.0100   33.7200 O   0  0  0  0  0  0  0  0  0  0  0  0
   27.0300   26.2200   34.8800 C   0  0  0  0  0  0  0  0  0  0  0  0
   27.3500   26.7300   36.0700 N   0  0  0  0  0  0  0  0  0  0  0  0
   28.5700   27.1800   36.3300 N   0  0  0  0  0  0  0  0  0  0  0  0
   29.5300   27.1100   35.3900 C   0  0  0  0  0  0  0  0  0  0  0  0
   30.8300   27.5700   35.6500 C   0  0  0  0  0  0  0  0  0  0  0  0
   31.8500   27.5400   34.6900 C   0  0  0  0  0  0  0  0  0  0  0  0
   31.5100   27.1200   33.4000 C   0  0  0  0  0  0  0  0  0  0  0  0
   30.2200   26.6300   33.1100 C   0  0  0  0  0  0  0  0  0  0  0  0
   29.2400   26.6600   34.1000 C   0  0  0  0  0  0  0  0  0  0  0  0
   27.9300   26.2600   33.8100 C   0  0  0  0  0  0  0  0  0  0  0  0
   27.5200   25.7100   32.6100 N   0  0  0  0  0  0  0  0  0  0  0  0
   31.1502   28.0871   36.9636 N   0  0  0  0  0  0  0  0  0  0  0  0
   31.8868   29.3604   37.0711 C   0  0  0  0  0  0  0  0  0  0  0  0
   31.7248   30.0378   38.4394 C   0  0  0  0  0  0  0  0  0  0  0  0
   30.2561   30.3053   38.7902 C   0  0  0  0  0  0  0  0  0  0  0  0
   29.4253   29.0893   38.7668 N   0  0  0  0  0  0  0  0  0  0  0  0
   29.9787   27.7801   39.1664 C   0  0  0  0  0  0  0  0  0  0  0  0
   30.9969   27.2207   38.1445 C   0  0  0  0  0  0  0  0  0  0  0  0
   28.0184   29.2353   38.4900 C   0  0  0  0  0  0  0  0  0  0  0  0
   27.0468   28.6448   39.3171 C   0  0  0  0  0  0  0  0  0  0  0  0
   25.6957   28.7802   38.9934 C   0  0  0  0  0  0  0  0  0  0  0  0
   25.3196   29.5130   37.8672 C   0  0  0  0  0  0  0  0  0  0  0  0
   26.3068   30.1073   37.0800 C   0  0  0  0  0  0  0  0  0  0  0  0
   27.6187   29.9567   37.4045 N   0  0  0  0  0  0  0  0  0  0  0  0
  1  2  1  0
  2  3  2  0
  2  4  1  0
  4  5  2  0
  5  6  1  0
  6  7  2  0
  7  8  1  0
  8  9  2  0
  9 10  1  0
 10 11  2  0
 11 12  1  0
 12 13  2  0
 13 14  1  0
  8 15  1  0
 15 16  1  0
 16 17  1  0
 17 18  1  0
 18 19  1  0
 19 20  1  0
 20 21  1  0
 19 22  1  0
 22 23  2  0
 23 24  1  0
 24 25  2  0
 25 26  1  0
 26 27  2  0
 13  4  1  0
 21 15  1  0
 27 22  1  0
 12  7  1  0
M  END
>  <AAScore>  (1) 
-5.889442729146943

>  <RootName>  (1) 
./4ZLY/04_DeltaGEst/trajectory_02/rank_01/lead_0214

$$$$
