confid_8
     RDKit          3D

 27 30  0  0  0  0  0  0  0  0999 V2000
   24.2000   26.2400   35.6900 N   0  0  0  0  0  0  0  0  0  0  0  0
   24.8500   26.2800   34.4800 C   0  0  0  0  0  0  0  0  0  0  0  0
   24.3100   25.7400   33.5400 O   0  0  0  0  0  0  0  0  0  0  0  0
   26.1800   26.9700   34.4700 C   0  0  0  0  0  0  0  0  0  0  0  0
   26.6500   27.6000   35.5500 N   0  0  0  0  0  0  0  0  0  0  0  0
   27.7900   28.2700   35.6200 N   0  0  0  0  0  0  0  0  0  0  0  0
   28.5400   28.3000   34.5100 C   0  0  0  0  0  0  0  0  0  0  0  0
   29.7700   28.9400   34.5600 C   0  0  0  0  0  0  0  0  0  0  0  0
   30.7000   28.8900   33.5000 C   0  0  0  0  0  0  0  0  0  0  0  0
   30.3700   28.1400   32.3700 C   0  0  0  0  0  0  0  0  0  0  0  0
   29.1200   27.5200   32.2800 C   0  0  0  0  0  0  0  0  0  0  0  0
   28.2100   27.6100   33.3300 C   0  0  0  0  0  0  0  0  0  0  0  0
   26.9700   26.9700   33.3100 C   0  0  0  0  0  0  0  0  0  0  0  0
   26.5300   26.2400   32.2200 N   0  0  0  0  0  0  0  0  0  0  0  0
   30.1461   29.6616   35.7468 N   0  0  0  0  0  0  0  0  0  0  0  0
   30.6560   28.9122   36.9034 C   0  0  0  0  0  0  0  0  0  0  0  0
   29.8748   29.2469   38.1793 C   0  0  0  0  0  0  0  0  0  0  0  0
   30.3095   30.5616   38.7679 C   0  0  0  0  0  0  0  0  0  0  0  0
   30.9291   30.5578   39.9807 N   0  0  0  0  0  0  0  0  0  0  0  0
   31.3672   31.6971   40.5744 C   0  0  0  0  0  0  0  0  0  0  0  0
   31.1950   32.9247   39.9392 C   0  0  0  0  0  0  0  0  0  0  0  0
   31.6375   34.0637   40.5274 F   0  0  0  0  0  0  0  0  0  0  0  0
   30.5681   32.9710   38.6929 C   0  0  0  0  0  0  0  0  0  0  0  0
   30.4153   34.1717   38.0781 F   0  0  0  0  0  0  0  0  0  0  0  0
   30.1087   31.7848   38.0886 C   0  0  0  0  0  0  0  0  0  0  0  0
   29.4455   31.8229   36.7305 C   0  0  0  0  0  0  0  0  0  0  0  0
   30.3016   31.1203   35.6721 C   0  0  0  0  0  0  0  0  0  0  0  0
  1  2  1  0
  2  3  2  0
  2  4  1  0
  4  5  2  0
  5  6  1  0
  6  7  2  0
  7  8  1  0
  8  9  2  0
  9 10  1  0
 10 11  2  0
 11 12  1  0
 12 13  2  0
 13 14  1  0
  8 15  1  0
 15 16  1  0
 16 17  1  0
 17 18  1  0
 18 19  2  0
 19 20  1  0
 20 21  2  0
 21 22  1  0
 21 23  1  0
 23 24  1  0
 23 25  2  0
 25 26  1  0
 26 27  1  0
 13  4  1  0
 27 15  1  0
 12  7  1  0
 25 18  1  0
M  END
>  <AAScore>  (1) 
-8.08690339868427

>  <RootName>  (1) 
./4ZLY/04_DeltaGEst/trajectory_04/rank_01/lead_0394

$$$$
