confid_9
     RDKit          3D

 29 32  0  0  0  0  0  0  0  0999 V2000
   24.5700   26.8800   35.5900 N   0  0  0  0  0  0  0  0  0  0  0  0
   25.5000   26.4000   34.6900 C   0  0  0  0  0  0  0  0  0  0  0  0
   25.1700   25.5200   33.9100 O   0  0  0  0  0  0  0  0  0  0  0  0
   26.8400   27.0200   34.7400 C   0  0  0  0  0  0  0  0  0  0  0  0
   27.3800   27.2800   35.9400 N   0  0  0  0  0  0  0  0  0  0  0  0
   28.6200   27.7400   36.0300 N   0  0  0  0  0  0  0  0  0  0  0  0
   29.3800   28.0000   34.9600 C   0  0  0  0  0  0  0  0  0  0  0  0
   30.6700   28.5000   35.1300 C   0  0  0  0  0  0  0  0  0  0  0  0
   31.5400   28.6100   34.0300 C   0  0  0  0  0  0  0  0  0  0  0  0
   31.0900   28.2200   32.7700 C   0  0  0  0  0  0  0  0  0  0  0  0
   29.8000   27.7000   32.6000 C   0  0  0  0  0  0  0  0  0  0  0  0
   28.9600   27.5500   33.7100 C   0  0  0  0  0  0  0  0  0  0  0  0
   27.6600   27.0300   33.5900 C   0  0  0  0  0  0  0  0  0  0  0  0
   27.1600   26.7400   32.3400 N   0  0  0  0  0  0  0  0  0  0  0  0
   33.1724   29.2326   34.2518 S   0  0  0  0  0  6  0  0  0  0  0  0
   33.1298   30.3728   35.2306 O   0  0  0  0  0  0  0  0  0  0  0  0
   33.6962   29.7452   32.9395 O   0  0  0  0  0  0  0  0  0  0  0  0
   34.2233   27.9168   34.8844 C   0  0  2  0  0  0  0  0  0  0  0  0
   35.5989   28.4249   35.3051 C   0  0  0  0  0  0  0  0  0  0  0  0
   36.5598   28.1319   34.2287 N   0  0  0  0  0  0  0  0  0  0  0  0
   35.8960   27.2261   33.2668 C   0  0  2  0  0  0  0  0  0  0  0  0
   34.5107   26.8723   33.8243 C   0  0  0  0  0  0  0  0  0  0  0  0
   36.7584   25.9577   32.9994 C   0  0  0  0  0  0  0  0  0  0  0  0
   37.9318   26.2686   32.0458 C   0  0  0  0  0  0  0  0  0  0  0  0
   38.7310   24.9990   31.7259 C   0  0  0  0  0  0  0  0  0  0  0  0
   39.2528   24.3415   33.0089 C   0  0  0  0  0  0  0  0  0  0  0  0
   38.1050   24.0406   33.9801 C   0  0  0  0  0  0  0  0  0  0  0  0
   37.3030   25.3094   34.2969 C   0  0  0  0  0  0  0  0  0  0  0  0
   37.0443   29.3695   33.5918 C   0  0  0  0  0  0  0  0  0  0  0  0
  1  2  1  0
  2  3  2  0
  2  4  1  0
  4  5  2  0
  5  6  1  0
  6  7  2  0
  7  8  1  0
  8  9  2  0
  9 10  1  0
 10 11  2  0
 11 12  1  0
 12 13  2  0
 13 14  1  0
  9 15  1  0
 15 16  2  0
 15 17  2  0
 18 15  1  6
 18 19  1  0
 19 20  1  0
 20 21  1  0
 21 22  1  0
 21 23  1  1
 23 24  1  0
 24 25  1  0
 25 26  1  0
 26 27  1  0
 27 28  1  0
 20 29  1  0
 13  4  1  0
 22 18  1  0
 12  7  1  0
 28 23  1  0
M  END
>  <AAScore>  (1) 
345.1849828076006

>  <RootName>  (1) 
./4ZLY/04_DeltaGEst/trajectory_05/rank_01/lead_0238

$$$$
