confid_6
     RDKit          3D

 27 30  0  0  0  0  0  0  0  0999 V2000
   24.5700   26.8800   35.5900 N   0  0  0  0  0  0  0  0  0  0  0  0
   25.5000   26.4000   34.6900 C   0  0  0  0  0  0  0  0  0  0  0  0
   25.1700   25.5200   33.9100 O   0  0  0  0  0  0  0  0  0  0  0  0
   26.8400   27.0200   34.7400 C   0  0  0  0  0  0  0  0  0  0  0  0
   27.3800   27.2800   35.9400 N   0  0  0  0  0  0  0  0  0  0  0  0
   28.6200   27.7400   36.0300 N   0  0  0  0  0  0  0  0  0  0  0  0
   29.3800   28.0000   34.9600 C   0  0  0  0  0  0  0  0  0  0  0  0
   30.6700   28.5000   35.1300 C   0  0  0  0  0  0  0  0  0  0  0  0
   31.5400   28.6100   34.0300 C   0  0  0  0  0  0  0  0  0  0  0  0
   31.0900   28.2200   32.7700 C   0  0  0  0  0  0  0  0  0  0  0  0
   29.8000   27.7000   32.6000 C   0  0  0  0  0  0  0  0  0  0  0  0
   28.9600   27.5500   33.7100 C   0  0  0  0  0  0  0  0  0  0  0  0
   27.6600   27.0300   33.5900 C   0  0  0  0  0  0  0  0  0  0  0  0
   27.1600   26.7400   32.3400 N   0  0  0  0  0  0  0  0  0  0  0  0
   33.1653   29.2561   34.2265 S   0  0  0  0  0  6  0  0  0  0  0  0
   33.4936   29.3814   35.6872 O   0  0  0  0  0  0  0  0  0  0  0  0
   34.1294   28.2779   33.6168 O   0  0  0  0  0  0  0  0  0  0  0  0
   33.3608   30.8371   33.3895 C   0  0  0  0  0  0  0  0  0  0  0  0
   32.6705   32.0545   34.0513 C   0  0  2  0  0  0  0  0  0  0  0  0
   33.3028   32.4366   35.3995 C   0  0  0  0  0  0  0  0  0  0  0  0
   32.1820   32.3264   36.4076 C   0  0  0  0  0  0  0  0  0  0  0  0
   30.9297   32.4787   35.5643 C   0  0  2  0  0  0  0  0  0  0  0  0
   29.7057   31.8644   36.2500 C   0  0  0  0  0  0  0  0  0  0  0  0
   31.2209   31.8392   34.2669 N   0  0  0  0  0  0  0  0  0  0  0  0
   30.4257   32.4954   33.2087 C   0  0  0  0  0  0  0  0  0  0  0  0
   29.1227   31.7726   32.9036 C   0  0  0  0  0  0  0  0  0  0  0  0
   30.2781   31.6973   31.9234 C   0  0  0  0  0  0  0  0  0  0  0  0
  1  2  1  0
  2  3  2  0
  2  4  1  0
  4  5  2  0
  5  6  1  0
  6  7  2  0
  7  8  1  0
  8  9  2  0
  9 10  1  0
 10 11  2  0
 11 12  1  0
 12 13  2  0
 13 14  1  0
  9 15  1  0
 15 16  2  0
 15 17  2  0
 15 18  1  0
 19 18  1  1
 19 20  1  0
 20 21  1  0
 21 22  1  0
 22 23  1  1
 22 24  1  0
 24 25  1  0
 25 26  1  0
 26 27  1  0
 13  4  1  0
 24 19  1  0
 27 25  1  0
 12  7  1  0
M  END
>  <AAScore>  (1) 
7.024337647660977

>  <RootName>  (1) 
./4ZLY/04_DeltaGEst/trajectory_05/rank_01/lead_0358

$$$$
