confid_9
     RDKit          3D

 29 32  0  0  0  0  0  0  0  0999 V2000
   24.5500   26.3900   36.2500 N   0  0  0  0  0  0  0  0  0  0  0  0
   25.6000   26.1300   35.4000 C   0  0  0  0  0  0  0  0  0  0  0  0
   25.4300   25.4300   34.4200 O   0  0  0  0  0  0  0  0  0  0  0  0
   26.9800   26.6300   35.7100 C   0  0  0  0  0  0  0  0  0  0  0  0
   27.3200   26.8200   36.9800 N   0  0  0  0  0  0  0  0  0  0  0  0
   28.4700   27.4000   37.3100 N   0  0  0  0  0  0  0  0  0  0  0  0
   29.4000   27.6300   36.3700 C   0  0  0  0  0  0  0  0  0  0  0  0
   30.6600   28.0500   36.8000 C   0  0  0  0  0  0  0  0  0  0  0  0
   31.5700   28.3600   35.7800 C   0  0  0  0  0  0  0  0  0  0  0  0
   31.3700   28.1000   34.4300 C   0  0  0  0  0  0  0  0  0  0  0  0
   30.1200   27.5900   34.0500 C   0  0  0  0  0  0  0  0  0  0  0  0
   29.1500   27.3400   35.0300 C   0  0  0  0  0  0  0  0  0  0  0  0
   27.8800   26.8900   34.6600 C   0  0  0  0  0  0  0  0  0  0  0  0
   27.4800   26.6100   33.3700 N   0  0  0  0  0  0  0  0  0  0  0  0
   30.9990   28.2757   38.2272 C   0  0  0  0  0  0  0  0  0  0  0  0
   30.9137   27.2048   39.1299 C   0  0  0  0  0  0  0  0  0  0  0  0
   31.2258   27.3833   40.4836 C   0  0  0  0  0  0  0  0  0  0  0  0
   31.1755   26.2147   41.4343 C   0  0  0  0  0  0  0  0  0  0  0  0
   30.7969   26.6535   42.7839 N   0  0  0  0  0  0  0  0  0  0  0  0
   31.2948   27.9102   43.2848 C   0  0  0  0  0  0  0  0  0  0  0  0
   31.1249   28.2305   44.4925 O   0  0  0  0  0  0  0  0  0  0  0  0
   32.0571   28.8344   42.3807 C   0  0  0  0  0  0  0  0  0  0  0  0
   31.6505   28.6440   40.9414 C   0  0  0  0  0  0  0  0  0  0  0  0
   31.7555   29.7113   40.0380 C   0  0  0  0  0  0  0  0  0  0  0  0
   31.4197   29.5419   38.6809 C   0  0  0  0  0  0  0  0  0  0  0  0
   31.4820   30.6063   37.7656 O   0  0  0  0  0  0  0  0  0  0  0  0
   31.8903   31.9310   38.0901 C   0  0  0  0  0  0  0  0  0  0  0  0
   30.0056   25.7656   43.6449 C   0  0  0  0  0  0  0  0  0  0  0  0
   28.5716   26.2714   43.7546 C   0  0  0  0  0  0  0  0  0  0  0  0
  1  2  1  0
  2  3  2  0
  2  4  1  0
  4  5  2  0
  5  6  1  0
  6  7  2  0
  7  8  1  0
  8  9  2  0
  9 10  1  0
 10 11  2  0
 11 12  1  0
 12 13  2  0
 13 14  1  0
  8 15  1  0
 15 16  2  0
 16 17  1  0
 17 18  1  0
 18 19  1  0
 19 20  1  0
 20 21  2  0
 20 22  1  0
 22 23  1  0
 23 24  1  0
 24 25  2  0
 25 26  1  0
 26 27  1  0
 19 28  1  0
 28 29  1  0
 13  4  1  0
 25 15  1  0
 12  7  1  0
 23 17  2  0
M  END
>  <AAScore>  (1) 
24.392868621920773

>  <RootName>  (1) 
./4ZLY/04_DeltaGEst/trajectory_01/rank_01/lead_0038

$$$$
