confid_5
     RDKit          3D

 27 30  0  0  0  0  0  0  0  0999 V2000
   24.5500   26.3900   36.2500 N   0  0  0  0  0  0  0  0  0  0  0  0
   25.6000   26.1300   35.4000 C   0  0  0  0  0  0  0  0  0  0  0  0
   25.4300   25.4300   34.4200 O   0  0  0  0  0  0  0  0  0  0  0  0
   26.9800   26.6300   35.7100 C   0  0  0  0  0  0  0  0  0  0  0  0
   27.3200   26.8200   36.9800 N   0  0  0  0  0  0  0  0  0  0  0  0
   28.4700   27.4000   37.3100 N   0  0  0  0  0  0  0  0  0  0  0  0
   29.4000   27.6300   36.3700 C   0  0  0  0  0  0  0  0  0  0  0  0
   30.6600   28.0500   36.8000 C   0  0  0  0  0  0  0  0  0  0  0  0
   31.5700   28.3600   35.7800 C   0  0  0  0  0  0  0  0  0  0  0  0
   31.3700   28.1000   34.4300 C   0  0  0  0  0  0  0  0  0  0  0  0
   30.1200   27.5900   34.0500 C   0  0  0  0  0  0  0  0  0  0  0  0
   29.1500   27.3400   35.0300 C   0  0  0  0  0  0  0  0  0  0  0  0
   27.8800   26.8900   34.6600 C   0  0  0  0  0  0  0  0  0  0  0  0
   27.4800   26.6100   33.3700 N   0  0  0  0  0  0  0  0  0  0  0  0
   30.9625   28.3006   38.1857 N   0  0  0  0  0  0  0  0  0  0  0  0
   31.0898   27.1480   39.0966 C   0  0  0  0  0  0  0  0  0  0  0  0
   30.3219   27.3242   40.4237 C   0  0  0  0  0  0  0  0  0  0  0  0
   29.1359   28.2457   40.2974 C   0  0  0  0  0  0  0  0  0  0  0  0
   27.8821   27.7320   40.4132 N   0  0  0  0  0  0  0  0  0  0  0  0
   26.7741   28.4975   40.2497 C   0  0  0  0  0  0  0  0  0  0  0  0
   26.8965   29.8502   39.9366 C   0  0  0  0  0  0  0  0  0  0  0  0
   28.1738   30.4239   39.8022 C   0  0  0  0  0  0  0  0  0  0  0  0
   28.3421   31.7780   39.4683 O   0  0  0  0  0  0  0  0  0  0  0  0
   27.2757   32.6898   39.2257 C   0  0  0  0  0  0  0  0  0  0  0  0
   29.3119   29.6163   40.0025 C   0  0  0  0  0  0  0  0  0  0  0  0
   30.7132   30.1719   39.8461 C   0  0  0  0  0  0  0  0  0  0  0  0
   31.4150   29.6468   38.5802 C   0  0  0  0  0  0  0  0  0  0  0  0
  1  2  1  0
  2  3  2  0
  2  4  1  0
  4  5  2  0
  5  6  1  0
  6  7  2  0
  7  8  1  0
  8  9  2  0
  9 10  1  0
 10 11  2  0
 11 12  1  0
 12 13  2  0
 13 14  1  0
  8 15  1  0
 15 16  1  0
 16 17  1  0
 17 18  1  0
 18 19  2  0
 19 20  1  0
 20 21  2  0
 21 22  1  0
 22 23  1  0
 23 24  1  0
 22 25  2  0
 25 26  1  0
 26 27  1  0
 13  4  1  0
 27 15  1  0
 12  7  1  0
 25 18  1  0
M  END
>  <AAScore>  (1) 
91.87399811252276

>  <RootName>  (1) 
./4ZLY/04_DeltaGEst/trajectory_01/rank_01/lead_0254

$$$$
