confid_0
     RDKit          3D

 29 33  0  0  0  0  0  0  0  0999 V2000
   24.6900   26.1200   35.5300 N   0  0  0  0  0  0  0  0  0  0  0  0
   25.6600   25.6700   34.6600 C   0  0  0  0  0  0  0  0  0  0  0  0
   25.2400   25.0100   33.7200 O   0  0  0  0  0  0  0  0  0  0  0  0
   27.0300   26.2200   34.8800 C   0  0  0  0  0  0  0  0  0  0  0  0
   27.3500   26.7300   36.0700 N   0  0  0  0  0  0  0  0  0  0  0  0
   28.5700   27.1800   36.3300 N   0  0  0  0  0  0  0  0  0  0  0  0
   29.5300   27.1100   35.3900 C   0  0  0  0  0  0  0  0  0  0  0  0
   30.8300   27.5700   35.6500 C   0  0  0  0  0  0  0  0  0  0  0  0
   31.8500   27.5400   34.6900 C   0  0  0  0  0  0  0  0  0  0  0  0
   31.5100   27.1200   33.4000 C   0  0  0  0  0  0  0  0  0  0  0  0
   30.2200   26.6300   33.1100 C   0  0  0  0  0  0  0  0  0  0  0  0
   29.2400   26.6600   34.1000 C   0  0  0  0  0  0  0  0  0  0  0  0
   27.9300   26.2600   33.8100 C   0  0  0  0  0  0  0  0  0  0  0  0
   27.5200   25.7100   32.6100 N   0  0  0  0  0  0  0  0  0  0  0  0
   23.3037   25.7193   35.5438 C   0  0  0  0  0  0  0  0  0  0  0  0
   22.8872   24.7294   34.7966 N   0  0  0  0  0  0  0  0  0  0  0  0
   21.5345   24.2604   34.7410 C   0  0  0  0  0  0  0  0  0  0  0  0
   20.5408   25.0942   34.4426 C   0  0  0  0  0  0  0  0  0  0  0  0
   19.0434   25.1369   34.4625 C   0  0  0  0  0  0  0  0  0  0  0  0
   18.9421   26.4764   34.0777 O   0  0  0  0  0  0  0  0  0  0  0  0
   20.3296   26.5166   33.9825 C   0  0  1  0  0  0  0  0  0  0  0  0
   20.9511   27.6197   34.8715 C   0  0  0  0  0  0  0  0  0  0  0  0
   21.3752   27.1640   36.2433 C   0  0  0  0  0  0  0  0  0  0  0  0
   22.3983   26.3690   36.5228 C   0  0  0  0  0  0  0  0  0  0  0  0
   22.5220   26.2156   37.8974 O   0  0  0  0  0  0  0  0  0  0  0  0
   21.4860   26.9527   38.5496 C   0  0  2  0  0  0  0  0  0  0  0  0
   20.7540   27.5835   37.4484 N   0  0  0  0  0  0  0  0  0  0  0  0
   22.0967   27.9990   39.4929 C   0  0  0  0  0  0  0  0  0  0  0  0
   21.0266   28.7686   40.2646 C   0  0  0  0  0  0  0  0  0  0  0  0
  1  2  1  0
  2  3  2  0
  2  4  1  0
  4  5  2  0
  5  6  1  0
  6  7  2  0
  7  8  1  0
  8  9  2  0
  9 10  1  0
 10 11  2  0
 11 12  1  0
 12 13  2  0
 13 14  1  0
  1 15  1  0
 15 16  2  0
 16 17  1  0
 17 18  2  0
 18 19  1  0
 19 20  1  0
 20 21  1  0
 21 22  1  1
 22 23  1  0
 23 24  2  0
 24 25  1  0
 25 26  1  0
 26 27  1  0
 26 28  1  1
 28 29  1  0
 13  4  1  0
 24 15  1  0
 12  7  1  0
 21 18  1  0
 27 23  1  0
M  END
>  <AAScore>  (1) 
42118.35105814214

>  <RootName>  (1) 
./4ZLY/04_DeltaGEst/trajectory_02/rank_00/lead_0466

$$$$
