confid_7
     RDKit          3D

 27 29  0  0  0  0  0  0  0  0999 V2000
   24.2000   26.2400   35.6900 N   0  0  0  0  0  0  0  0  0  0  0  0
   24.8500   26.2800   34.4800 C   0  0  0  0  0  0  0  0  0  0  0  0
   24.3100   25.7400   33.5400 O   0  0  0  0  0  0  0  0  0  0  0  0
   26.1800   26.9700   34.4700 C   0  0  0  0  0  0  0  0  0  0  0  0
   26.6500   27.6000   35.5500 N   0  0  0  0  0  0  0  0  0  0  0  0
   27.7900   28.2700   35.6200 N   0  0  0  0  0  0  0  0  0  0  0  0
   28.5400   28.3000   34.5100 C   0  0  0  0  0  0  0  0  0  0  0  0
   29.7700   28.9400   34.5600 C   0  0  0  0  0  0  0  0  0  0  0  0
   30.7000   28.8900   33.5000 C   0  0  0  0  0  0  0  0  0  0  0  0
   30.3700   28.1400   32.3700 C   0  0  0  0  0  0  0  0  0  0  0  0
   29.1200   27.5200   32.2800 C   0  0  0  0  0  0  0  0  0  0  0  0
   28.2100   27.6100   33.3300 C   0  0  0  0  0  0  0  0  0  0  0  0
   26.9700   26.9700   33.3100 C   0  0  0  0  0  0  0  0  0  0  0  0
   26.5300   26.2400   32.2200 N   0  0  0  0  0  0  0  0  0  0  0  0
   30.1339   29.6876   35.7362 N   0  0  0  0  0  0  0  0  0  0  0  0
   31.3472   29.3594   36.4921 C   0  0  0  0  0  0  0  0  0  0  0  0
   32.2752   30.5778   36.5356 C   0  0  0  0  0  0  0  0  0  0  0  0
   31.5167   31.8197   37.0449 C   0  0  0  0  0  0  0  0  0  0  0  0
   32.4186   33.0274   37.0752 C   0  0  0  0  0  0  0  0  0  0  0  0
   32.6985   33.5571   38.1850 O   0  0  0  0  0  0  0  0  0  0  0  0
   32.9596   33.5740   35.8617 N   0  0  0  0  0  0  0  0  0  0  0  0
   33.7077   34.8303   35.8304 C   0  0  0  0  0  0  0  0  0  0  0  0
   32.7739   36.0392   36.0400 C   0  0  0  0  0  0  0  0  0  0  0  0
   31.7212   36.1287   34.9261 C   0  0  0  0  0  0  0  0  0  0  0  0
   33.5904   37.3352   36.1027 C   0  0  0  0  0  0  0  0  0  0  0  0
   30.2629   32.0926   36.1894 C   0  0  0  0  0  0  0  0  0  0  0  0
   29.3549   30.8595   36.1503 C   0  0  0  0  0  0  0  0  0  0  0  0
  1  2  1  0
  2  3  2  0
  2  4  1  0
  4  5  2  0
  5  6  1  0
  6  7  2  0
  7  8  1  0
  8  9  2  0
  9 10  1  0
 10 11  2  0
 11 12  1  0
 12 13  2  0
 13 14  1  0
  8 15  1  0
 15 16  1  0
 16 17  1  0
 17 18  1  0
 18 19  1  0
 19 20  2  0
 19 21  1  0
 21 22  1  0
 22 23  1  0
 23 24  1  0
 23 25  1  0
 18 26  1  0
 26 27  1  0
 13  4  1  0
 27 15  1  0
 12  7  1  0
M  END
>  <AAScore>  (1) 
-7.849870700754662

>  <RootName>  (1) 
./4ZLY/04_DeltaGEst/trajectory_04/rank_01/lead_0414

$$$$
