confid_0
     RDKit          3D

 29 32  0  0  0  0  0  0  0  0999 V2000
   24.5500   26.3900   36.2500 N   0  0  0  0  0  0  0  0  0  0  0  0
   25.6000   26.1300   35.4000 C   0  0  0  0  0  0  0  0  0  0  0  0
   25.4300   25.4300   34.4200 O   0  0  0  0  0  0  0  0  0  0  0  0
   26.9800   26.6300   35.7100 C   0  0  0  0  0  0  0  0  0  0  0  0
   27.3200   26.8200   36.9800 N   0  0  0  0  0  0  0  0  0  0  0  0
   28.4700   27.4000   37.3100 N   0  0  0  0  0  0  0  0  0  0  0  0
   29.4000   27.6300   36.3700 C   0  0  0  0  0  0  0  0  0  0  0  0
   30.6600   28.0500   36.8000 C   0  0  0  0  0  0  0  0  0  0  0  0
   31.5700   28.3600   35.7800 C   0  0  0  0  0  0  0  0  0  0  0  0
   31.3700   28.1000   34.4300 C   0  0  0  0  0  0  0  0  0  0  0  0
   30.1200   27.5900   34.0500 C   0  0  0  0  0  0  0  0  0  0  0  0
   29.1500   27.3400   35.0300 C   0  0  0  0  0  0  0  0  0  0  0  0
   27.8800   26.8900   34.6600 C   0  0  0  0  0  0  0  0  0  0  0  0
   27.4800   26.6100   33.3700 N   0  0  0  0  0  0  0  0  0  0  0  0
   30.9608   28.3128   38.1795 N   0  0  0  0  0  0  0  0  0  0  0  0
   30.3202   29.4381   38.8696 C   0  0  0  0  0  0  0  0  0  0  0  0
   29.9751   29.0784   40.3316 C   0  0  0  0  0  0  0  0  0  0  0  0
   30.6629   27.8543   40.8020 N   0  0  0  0  0  0  0  0  0  0  0  0
   30.5879   27.7520   42.2723 C   0  0  0  0  0  0  0  0  0  0  0  0
   30.8134   26.3355   42.7071 C   0  0  0  0  0  0  0  0  0  0  0  0
   31.7665   25.8924   43.6043 C   0  0  0  0  0  0  0  0  0  0  0  0
   31.5957   24.5257   43.7010 C   0  0  0  0  0  0  0  0  0  0  0  0
   30.5806   24.1299   42.9018 N   0  0  0  0  0  0  0  0  0  0  0  0
   30.0800   22.7621   42.7241 C   0  0  0  0  0  0  0  0  0  0  0  0
   29.5315   22.2176   44.0461 C   0  0  0  0  0  0  0  0  0  0  0  0
   31.1822   21.8563   42.1674 C   0  0  0  0  0  0  0  0  0  0  0  0
   30.0956   25.2308   42.2945 C   0  0  0  0  0  0  0  0  0  0  0  0
   32.0605   27.8268   40.3314 C   0  0  0  0  0  0  0  0  0  0  0  0
   32.0670   27.5936   38.8193 C   0  0  0  0  0  0  0  0  0  0  0  0
  1  2  1  0
  2  3  2  0
  2  4  1  0
  4  5  2  0
  5  6  1  0
  6  7  2  0
  7  8  1  0
  8  9  2  0
  9 10  1  0
 10 11  2  0
 11 12  1  0
 12 13  2  0
 13 14  1  0
  8 15  1  0
 15 16  1  0
 16 17  1  0
 17 18  1  0
 18 19  1  0
 19 20  1  0
 20 21  1  0
 21 22  2  0
 22 23  1  0
 23 24  1  0
 24 25  1  0
 24 26  1  0
 23 27  1  0
 18 28  1  0
 28 29  1  0
 13  4  1  0
 29 15  1  0
 12  7  1  0
 27 20  2  0
M  END
>  <AAScore>  (1) 
601.3604746376719

>  <RootName>  (1) 
./4ZLY/04_DeltaGEst/trajectory_01/rank_01/lead_0131

$$$$
