confid_19
     RDKit          3D

 31 35  0  0  0  0  0  0  0  0999 V2000
   24.5700   26.8800   35.5900 N   0  0  0  0  0  0  0  0  0  0  0  0
   25.5000   26.4000   34.6900 C   0  0  0  0  0  0  0  0  0  0  0  0
   25.1700   25.5200   33.9100 O   0  0  0  0  0  0  0  0  0  0  0  0
   26.8400   27.0200   34.7400 C   0  0  0  0  0  0  0  0  0  0  0  0
   27.3800   27.2800   35.9400 N   0  0  0  0  0  0  0  0  0  0  0  0
   28.6200   27.7400   36.0300 N   0  0  0  0  0  0  0  0  0  0  0  0
   29.3800   28.0000   34.9600 C   0  0  0  0  0  0  0  0  0  0  0  0
   30.6700   28.5000   35.1300 C   0  0  0  0  0  0  0  0  0  0  0  0
   31.5400   28.6100   34.0300 C   0  0  0  0  0  0  0  0  0  0  0  0
   31.0900   28.2200   32.7700 C   0  0  0  0  0  0  0  0  0  0  0  0
   29.8000   27.7000   32.6000 C   0  0  0  0  0  0  0  0  0  0  0  0
   28.9600   27.5500   33.7100 C   0  0  0  0  0  0  0  0  0  0  0  0
   27.6600   27.0300   33.5900 C   0  0  0  0  0  0  0  0  0  0  0  0
   27.1600   26.7400   32.3400 N   0  0  0  0  0  0  0  0  0  0  0  0
   33.1592   29.2691   34.2306 S   0  0  0  0  0  6  0  0  0  0  0  0
   34.1080   28.5536   33.3105 O   0  0  0  0  0  0  0  0  0  0  0  0
   33.6182   29.0608   35.6471 O   0  0  0  0  0  0  0  0  0  0  0  0
   33.1304   31.0128   33.8122 C   0  0  1  0  0  0  0  0  0  0  0  0
   32.3773   31.8754   34.8066 C   0  0  0  0  0  0  0  0  0  0  0  0
   33.5850   32.6259   35.2078 N   0  0  0  0  0  0  0  0  0  0  0  0
   33.9243   32.3994   36.6371 C   0  0  0  0  0  0  0  0  0  0  0  0
   32.8922   33.0971   37.5532 C   0  0  0  0  0  0  0  0  0  0  0  0
   33.1428   32.7786   39.0420 C   0  0  0  0  0  0  0  0  0  0  0  0
   34.6184   32.4748   39.3620 C   0  0  0  0  0  0  0  0  0  0  0  0
   35.5613   33.2709   38.4566 C   0  0  0  0  0  0  0  0  0  0  0  0
   35.3334   32.9614   36.9599 C   0  0  0  0  0  0  0  0  0  0  0  0
   34.3646   31.7838   34.2699 C   0  0  2  0  0  0  0  0  0  0  0  0
   35.0016   32.5662   33.0870 C   0  0  0  0  0  0  0  0  0  0  0  0
   34.3323   33.8855   32.6876 C   0  0  0  0  0  0  0  0  0  0  0  0
   35.5981   34.6386   33.0742 C   0  0  0  0  0  0  0  0  0  0  0  0
   36.2778   33.3252   33.4377 C   0  0  0  0  0  0  0  0  0  0  0  0
  1  2  1  0
  2  3  2  0
  2  4  1  0
  4  5  2  0
  5  6  1  0
  6  7  2  0
  7  8  1  0
  8  9  2  0
  9 10  1  0
 10 11  2  0
 11 12  1  0
 12 13  2  0
 13 14  1  0
  9 15  1  0
 15 16  2  0
 15 17  2  0
 18 15  1  1
 18 19  1  0
 19 20  1  0
 20 21  1  0
 21 22  1  0
 22 23  1  0
 23 24  1  0
 24 25  1  0
 25 26  1  0
 20 27  1  0
 27 28  1  6
 28 29  1  0
 29 30  1  0
 30 31  1  0
 13  4  1  0
 27 18  1  0
 31 28  1  0
 12  7  1  0
 26 21  1  0
M  END
>  <AAScore>  (1) 
-6.738113338265196

>  <RootName>  (1) 
./4ZLY/04_DeltaGEst/trajectory_05/rank_01/lead_0470

$$$$
