confid_12
     RDKit          3D

 29 32  0  0  0  0  0  0  0  0999 V2000
   24.2000   26.2400   35.6900 N   0  0  0  0  0  0  0  0  0  0  0  0
   24.8500   26.2800   34.4800 C   0  0  0  0  0  0  0  0  0  0  0  0
   24.3100   25.7400   33.5400 O   0  0  0  0  0  0  0  0  0  0  0  0
   26.1800   26.9700   34.4700 C   0  0  0  0  0  0  0  0  0  0  0  0
   26.6500   27.6000   35.5500 N   0  0  0  0  0  0  0  0  0  0  0  0
   27.7900   28.2700   35.6200 N   0  0  0  0  0  0  0  0  0  0  0  0
   28.5400   28.3000   34.5100 C   0  0  0  0  0  0  0  0  0  0  0  0
   29.7700   28.9400   34.5600 C   0  0  0  0  0  0  0  0  0  0  0  0
   30.7000   28.8900   33.5000 C   0  0  0  0  0  0  0  0  0  0  0  0
   30.3700   28.1400   32.3700 C   0  0  0  0  0  0  0  0  0  0  0  0
   29.1200   27.5200   32.2800 C   0  0  0  0  0  0  0  0  0  0  0  0
   28.2100   27.6100   33.3300 C   0  0  0  0  0  0  0  0  0  0  0  0
   26.9700   26.9700   33.3100 C   0  0  0  0  0  0  0  0  0  0  0  0
   26.5300   26.2400   32.2200 N   0  0  0  0  0  0  0  0  0  0  0  0
   22.7659   26.1702   35.8456 C   0  0  0  0  0  0  0  0  0  0  0  0
   21.9568   26.1352   34.7508 N   0  0  0  0  0  0  0  0  0  0  0  0
   20.6071   26.0348   34.8451 C   0  0  0  0  0  0  0  0  0  0  0  0
   19.9922   25.9437   36.0980 C   0  0  0  0  0  0  0  0  0  0  0  0
   18.4876   25.8727   36.1908 C   0  0  0  0  0  0  0  0  0  0  0  0
   18.0537   25.3270   37.4918 N   0  0  0  0  0  0  0  0  0  0  0  0
   18.6474   26.1095   38.5900 C   0  0  0  0  0  0  0  0  0  0  0  0
   20.1606   25.8832   38.6255 C   0  0  0  0  0  0  0  0  0  0  0  0
   20.7882   26.0211   37.2576 C   0  0  0  0  0  0  0  0  0  0  0  0
   22.1856   26.1361   37.1299 C   0  0  0  0  0  0  0  0  0  0  0  0
   22.9858   26.2058   38.2731 O   0  0  0  0  0  0  0  0  0  0  0  0
   23.4440   27.4544   38.7834 C   0  0  0  0  0  0  0  0  0  0  0  0
   24.3211   27.2174   40.0027 C   0  0  0  0  0  0  0  0  0  0  0  0
   23.5920   26.5841   40.9929 F   0  0  0  0  0  0  0  0  0  0  0  0
   16.5860   25.3596   37.5841 C   0  0  0  0  0  0  0  0  0  0  0  0
  1  2  1  0
  2  3  2  0
  2  4  1  0
  4  5  2  0
  5  6  1  0
  6  7  2  0
  7  8  1  0
  8  9  2  0
  9 10  1  0
 10 11  2  0
 11 12  1  0
 12 13  2  0
 13 14  1  0
  1 15  1  0
 15 16  2  0
 16 17  1  0
 17 18  2  0
 18 19  1  0
 19 20  1  0
 20 21  1  0
 21 22  1  0
 22 23  1  0
 23 24  2  0
 24 25  1  0
 25 26  1  0
 26 27  1  0
 27 28  1  0
 20 29  1  0
 13  4  1  0
 24 15  1  0
 12  7  1  0
 23 18  1  0
M  END
>  <AAScore>  (1) 
232.2744067103556

>  <RootName>  (1) 
./4ZLY/04_DeltaGEst/trajectory_04/rank_00/lead_0233

$$$$
