confid_9
     RDKit          3D

 29 32  0  0  0  0  0  0  0  0999 V2000
   24.6900   26.1200   35.5300 N   0  0  0  0  0  0  0  0  0  0  0  0
   25.6600   25.6700   34.6600 C   0  0  0  0  0  0  0  0  0  0  0  0
   25.2400   25.0100   33.7200 O   0  0  0  0  0  0  0  0  0  0  0  0
   27.0300   26.2200   34.8800 C   0  0  0  0  0  0  0  0  0  0  0  0
   27.3500   26.7300   36.0700 N   0  0  0  0  0  0  0  0  0  0  0  0
   28.5700   27.1800   36.3300 N   0  0  0  0  0  0  0  0  0  0  0  0
   29.5300   27.1100   35.3900 C   0  0  0  0  0  0  0  0  0  0  0  0
   30.8300   27.5700   35.6500 C   0  0  0  0  0  0  0  0  0  0  0  0
   31.8500   27.5400   34.6900 C   0  0  0  0  0  0  0  0  0  0  0  0
   31.5100   27.1200   33.4000 C   0  0  0  0  0  0  0  0  0  0  0  0
   30.2200   26.6300   33.1100 C   0  0  0  0  0  0  0  0  0  0  0  0
   29.2400   26.6600   34.1000 C   0  0  0  0  0  0  0  0  0  0  0  0
   27.9300   26.2600   33.8100 C   0  0  0  0  0  0  0  0  0  0  0  0
   27.5200   25.7100   32.6100 N   0  0  0  0  0  0  0  0  0  0  0  0
   31.1468   28.0636   36.9627 N   0  0  0  0  0  0  0  0  0  0  0  0
   30.5755   29.3263   37.4363 C   0  0  0  0  0  0  0  0  0  0  0  0
   30.0582   29.1907   38.8847 C   0  0  0  0  0  0  0  0  0  0  0  0
   30.7237   28.1203   39.6724 N   0  0  0  0  0  0  0  0  0  0  0  0
   29.9010   26.8902   39.7419 C   0  0  0  0  0  0  0  0  0  0  0  0
   30.4516   25.9112   40.7479 C   0  0  0  0  0  0  0  0  0  0  0  0
   30.4084   26.1550   42.1408 C   0  0  0  0  0  0  0  0  0  0  0  0
   30.9605   25.1980   43.0060 C   0  0  0  0  0  0  0  0  0  0  0  0
   31.5424   24.0383   42.4953 C   0  0  0  0  0  0  0  0  0  0  0  0
   31.5784   23.8400   41.1124 C   0  0  0  0  0  0  0  0  0  0  0  0
   32.1802   22.5968   40.5397 C   0  0  0  0  0  0  0  0  0  0  0  0
   31.0321   24.7696   40.2846 N   0  0  0  0  0  0  0  0  0  0  0  0
   29.7870   27.4033   42.7094 C   0  0  0  0  0  0  0  0  0  0  0  0
   32.1140   27.8759   39.2246 C   0  0  0  0  0  0  0  0  0  0  0  0
   32.1676   27.3891   37.7688 C   0  0  0  0  0  0  0  0  0  0  0  0
  1  2  1  0
  2  3  2  0
  2  4  1  0
  4  5  2  0
  5  6  1  0
  6  7  2  0
  7  8  1  0
  8  9  2  0
  9 10  1  0
 10 11  2  0
 11 12  1  0
 12 13  2  0
 13 14  1  0
  8 15  1  0
 15 16  1  0
 16 17  1  0
 17 18  1  0
 18 19  1  0
 19 20  1  0
 20 21  2  0
 21 22  1  0
 22 23  2  0
 23 24  1  0
 24 25  1  0
 24 26  2  0
 21 27  1  0
 18 28  1  0
 28 29  1  0
 13  4  1  0
 29 15  1  0
 12  7  1  0
 26 20  1  0
M  END
>  <AAScore>  (1) 
47.15229653612704

>  <RootName>  (1) 
./4ZLY/04_DeltaGEst/trajectory_02/rank_01/lead_0131

$$$$
