confid_7
     RDKit          3D

 28 31  0  0  0  0  0  0  0  0999 V2000
   24.2000   26.2400   35.6900 N   0  0  0  0  0  0  0  0  0  0  0  0
   24.8500   26.2800   34.4800 C   0  0  0  0  0  0  0  0  0  0  0  0
   24.3100   25.7400   33.5400 O   0  0  0  0  0  0  0  0  0  0  0  0
   26.1800   26.9700   34.4700 C   0  0  0  0  0  0  0  0  0  0  0  0
   26.6500   27.6000   35.5500 N   0  0  0  0  0  0  0  0  0  0  0  0
   27.7900   28.2700   35.6200 N   0  0  0  0  0  0  0  0  0  0  0  0
   28.5400   28.3000   34.5100 C   0  0  0  0  0  0  0  0  0  0  0  0
   29.7700   28.9400   34.5600 C   0  0  0  0  0  0  0  0  0  0  0  0
   30.7000   28.8900   33.5000 C   0  0  0  0  0  0  0  0  0  0  0  0
   30.3700   28.1400   32.3700 C   0  0  0  0  0  0  0  0  0  0  0  0
   29.1200   27.5200   32.2800 C   0  0  0  0  0  0  0  0  0  0  0  0
   28.2100   27.6100   33.3300 C   0  0  0  0  0  0  0  0  0  0  0  0
   26.9700   26.9700   33.3100 C   0  0  0  0  0  0  0  0  0  0  0  0
   26.5300   26.2400   32.2200 N   0  0  0  0  0  0  0  0  0  0  0  0
   22.7870   26.0165   35.8494 C   0  0  0  0  0  0  0  0  0  0  0  0
   22.3419   25.3855   36.9617 N   0  0  0  0  0  0  0  0  0  0  0  0
   21.0259   25.1347   37.1713 C   0  0  0  0  0  0  0  0  0  0  0  0
   20.0466   25.5188   36.2334 C   0  0  0  0  0  0  0  0  0  0  0  0
   18.6353   25.0676   36.5891 C   0  0  0  0  0  0  0  0  0  0  0  0
   17.6135   25.3088   35.5722 N   0  0  0  0  0  0  0  0  0  0  0  0
   17.1571   24.2418   34.6806 C   0  0  0  0  0  0  0  0  0  0  0  0
   16.9764   26.5896   35.5297 C   0  0  0  0  0  0  0  0  0  0  0  0
   15.7190   26.6788   35.4761 O   0  0  0  0  0  0  0  0  0  0  0  0
   17.8274   27.8062   35.4201 C   0  0  0  0  0  0  0  0  0  0  0  0
   18.5959   27.6553   34.1521 C   0  0  0  0  0  0  0  0  0  0  0  0
   19.6295   26.8169   33.9952 C   0  0  0  0  0  0  0  0  0  0  0  0
   20.4787   26.2561   35.0827 C   0  0  0  0  0  0  0  0  0  0  0  0
   21.8575   26.4731   34.9049 C   0  0  0  0  0  0  0  0  0  0  0  0
  1  2  1  0
  2  3  2  0
  2  4  1  0
  4  5  2  0
  5  6  1  0
  6  7  2  0
  7  8  1  0
  8  9  2  0
  9 10  1  0
 10 11  2  0
 11 12  1  0
 12 13  2  0
 13 14  1  0
  1 15  1  0
 15 16  2  0
 16 17  1  0
 17 18  2  0
 18 19  1  0
 19 20  1  0
 20 21  1  0
 20 22  1  0
 22 23  2  0
 22 24  1  0
 24 25  1  0
 25 26  2  0
 26 27  1  0
 27 28  2  0
 13  4  1  0
 28 15  1  0
 12  7  1  0
 27 18  1  0
M  END
>  <AAScore>  (1) 
1024.5756641019282

>  <RootName>  (1) 
./4ZLY/04_DeltaGEst/trajectory_04/rank_00/lead_0119

$$$$
