confid_4
     RDKit          3D

 28 31  0  0  0  0  0  0  0  0999 V2000
   24.2000   26.2400   35.6900 N   0  0  0  0  0  0  0  0  0  0  0  0
   24.8500   26.2800   34.4800 C   0  0  0  0  0  0  0  0  0  0  0  0
   24.3100   25.7400   33.5400 O   0  0  0  0  0  0  0  0  0  0  0  0
   26.1800   26.9700   34.4700 C   0  0  0  0  0  0  0  0  0  0  0  0
   26.6500   27.6000   35.5500 N   0  0  0  0  0  0  0  0  0  0  0  0
   27.7900   28.2700   35.6200 N   0  0  0  0  0  0  0  0  0  0  0  0
   28.5400   28.3000   34.5100 C   0  0  0  0  0  0  0  0  0  0  0  0
   29.7700   28.9400   34.5600 C   0  0  0  0  0  0  0  0  0  0  0  0
   30.7000   28.8900   33.5000 C   0  0  0  0  0  0  0  0  0  0  0  0
   30.3700   28.1400   32.3700 C   0  0  0  0  0  0  0  0  0  0  0  0
   29.1200   27.5200   32.2800 C   0  0  0  0  0  0  0  0  0  0  0  0
   28.2100   27.6100   33.3300 C   0  0  0  0  0  0  0  0  0  0  0  0
   26.9700   26.9700   33.3100 C   0  0  0  0  0  0  0  0  0  0  0  0
   26.5300   26.2400   32.2200 N   0  0  0  0  0  0  0  0  0  0  0  0
   30.1298   29.6949   35.7328 N   0  0  0  0  0  0  0  0  0  0  0  0
   29.4087   30.9564   36.0017 C   0  0  0  0  0  0  0  0  0  0  0  0
   30.0162   31.7871   37.1460 C   0  0  0  0  0  0  0  0  0  0  0  0
   31.4162   32.3431   36.8300 C   0  0  0  0  0  0  0  0  0  0  0  0
   32.1957   31.4575   35.9538 N   0  0  0  0  0  0  0  0  0  0  0  0
   32.5748   31.9196   34.6447 C   0  0  0  0  0  0  0  0  0  0  0  0
   31.7140   32.4705   33.9051 O   0  0  0  0  0  0  0  0  0  0  0  0
   33.9625   31.7958   34.1629 C   0  0  0  0  0  0  0  0  0  0  0  0
   34.3887   32.0035   32.8556 C   0  0  0  0  0  0  0  0  0  0  0  0
   35.7741   31.8787   32.6972 C   0  0  0  0  0  0  0  0  0  0  0  0
   36.4455   31.5776   33.8753 C   0  0  0  0  0  0  0  0  0  0  0  0
   35.3133   31.4707   35.1142 S   0  0  0  0  0  0  0  0  0  0  0  0
   32.5139   30.0842   36.3724 C   0  0  0  0  0  0  0  0  0  0  0  0
   31.2509   29.2268   36.5654 C   0  0  0  0  0  0  0  0  0  0  0  0
  1  2  1  0
  2  3  2  0
  2  4  1  0
  4  5  2  0
  5  6  1  0
  6  7  2  0
  7  8  1  0
  8  9  2  0
  9 10  1  0
 10 11  2  0
 11 12  1  0
 12 13  2  0
 13 14  1  0
  8 15  1  0
 15 16  1  0
 16 17  1  0
 17 18  1  0
 18 19  1  0
 19 20  1  0
 20 21  2  0
 20 22  1  0
 22 23  2  0
 23 24  1  0
 24 25  2  0
 25 26  1  0
 19 27  1  0
 27 28  1  0
 13  4  1  0
 28 15  1  0
 12  7  1  0
 26 22  1  0
M  END
>  <AAScore>  (1) 
-7.096429505651155

>  <RootName>  (1) 
./4ZLY/04_DeltaGEst/trajectory_04/rank_01/lead_0084

$$$$
