confid_5
     RDKit          3D

 30 33  0  0  0  0  0  0  0  0999 V2000
   24.2000   26.2400   35.6900 N   0  0  0  0  0  0  0  0  0  0  0  0
   24.8500   26.2800   34.4800 C   0  0  0  0  0  0  0  0  0  0  0  0
   24.3100   25.7400   33.5400 O   0  0  0  0  0  0  0  0  0  0  0  0
   26.1800   26.9700   34.4700 C   0  0  0  0  0  0  0  0  0  0  0  0
   26.6500   27.6000   35.5500 N   0  0  0  0  0  0  0  0  0  0  0  0
   27.7900   28.2700   35.6200 N   0  0  0  0  0  0  0  0  0  0  0  0
   28.5400   28.3000   34.5100 C   0  0  0  0  0  0  0  0  0  0  0  0
   29.7700   28.9400   34.5600 C   0  0  0  0  0  0  0  0  0  0  0  0
   30.7000   28.8900   33.5000 C   0  0  0  0  0  0  0  0  0  0  0  0
   30.3700   28.1400   32.3700 C   0  0  0  0  0  0  0  0  0  0  0  0
   29.1200   27.5200   32.2800 C   0  0  0  0  0  0  0  0  0  0  0  0
   28.2100   27.6100   33.3300 C   0  0  0  0  0  0  0  0  0  0  0  0
   26.9700   26.9700   33.3100 C   0  0  0  0  0  0  0  0  0  0  0  0
   26.5300   26.2400   32.2200 N   0  0  0  0  0  0  0  0  0  0  0  0
   30.1323   29.6910   35.7358 N   0  0  0  0  0  0  0  0  0  0  0  0
   29.3922   30.9105   36.0819 C   0  0  0  0  0  0  0  0  0  0  0  0
   30.3631   32.0208   36.5151 C   0  0  0  0  0  0  0  0  0  0  0  0
   31.6398   31.8638   35.7892 N   0  0  0  0  0  0  0  0  0  0  0  0
   32.4867   33.0690   35.9227 C   0  0  0  0  0  0  0  0  0  0  0  0
   33.5255   33.1450   34.7845 C   0  0  0  0  0  0  0  0  0  0  0  0
   32.8469   33.0426   33.3980 C   0  0  0  0  0  0  0  0  0  0  0  0
   33.7259   33.6019   32.2643 C   0  0  0  0  0  0  0  0  0  0  0  0
   35.1485   33.5818   32.6570 N   0  0  0  0  0  0  0  0  0  0  0  0
   36.0662   33.7037   31.4918 C   0  0  0  0  0  0  0  0  0  0  0  0
   37.4842   33.2489   31.8614 C   0  0  0  0  0  0  0  0  0  0  0  0
   36.0918   35.1067   30.8536 C   0  0  0  0  0  0  0  0  0  0  0  0
   35.4131   34.5324   33.7638 C   0  0  0  0  0  0  0  0  0  0  0  0
   34.3454   34.4429   34.8791 C   0  0  0  0  0  0  0  0  0  0  0  0
   32.3554   30.6388   36.2275 C   0  0  0  0  0  0  0  0  0  0  0  0
   31.4034   29.4406   36.4201 C   0  0  0  0  0  0  0  0  0  0  0  0
  1  2  1  0
  2  3  2  0
  2  4  1  0
  4  5  2  0
  5  6  1  0
  6  7  2  0
  7  8  1  0
  8  9  2  0
  9 10  1  0
 10 11  2  0
 11 12  1  0
 12 13  2  0
 13 14  1  0
  8 15  1  0
 15 16  1  0
 16 17  1  0
 17 18  1  0
 18 19  1  0
 19 20  1  0
 20 21  1  0
 21 22  1  0
 22 23  1  0
 23 24  1  0
 24 25  1  0
 24 26  1  0
 23 27  1  0
 27 28  1  0
 18 29  1  0
 29 30  1  0
 13  4  1  0
 30 15  1  0
 12  7  1  0
 28 20  1  0
M  END
>  <AAScore>  (1) 
-7.674217248803242

>  <RootName>  (1) 
./4ZLY/04_DeltaGEst/trajectory_04/rank_01/lead_0076

$$$$
