confid_2
     RDKit          3D

 28 31  0  0  0  0  0  0  0  0999 V2000
   24.4800   26.1000   36.1300 N   0  0  0  0  0  0  0  0  0  0  0  0
   25.2500   26.2500   34.9900 C   0  0  0  0  0  0  0  0  0  0  0  0
   24.7400   25.7600   33.9900 O   0  0  0  0  0  0  0  0  0  0  0  0
   26.5900   26.8900   34.9600 C   0  0  0  0  0  0  0  0  0  0  0  0
   27.0600   27.2400   36.1600 N   0  0  0  0  0  0  0  0  0  0  0  0
   28.3000   27.7100   36.2400 N   0  0  0  0  0  0  0  0  0  0  0  0
   29.0500   27.9600   35.1500 C   0  0  0  0  0  0  0  0  0  0  0  0
   30.3400   28.4900   35.2600 C   0  0  0  0  0  0  0  0  0  0  0  0
   31.1100   28.8200   34.1400 C   0  0  0  0  0  0  0  0  0  0  0  0
   30.5200   28.6700   32.8800 C   0  0  0  0  0  0  0  0  0  0  0  0
   29.2900   28.0200   32.7700 C   0  0  0  0  0  0  0  0  0  0  0  0
   28.5200   27.7100   33.8900 C   0  0  0  0  0  0  0  0  0  0  0  0
   27.2700   27.0800   33.7600 C   0  0  0  0  0  0  0  0  0  0  0  0
   26.7500   26.8800   32.4900 N   0  0  0  0  0  0  0  0  0  0  0  0
   23.4268   25.1263   36.2862 C   0  0  0  0  0  0  0  0  0  0  0  0
   23.6237   23.8096   35.8609 C   0  0  0  0  0  0  0  0  0  0  0  0
   22.6240   22.8494   36.0471 C   0  0  0  0  0  0  0  0  0  0  0  0
   22.8897   21.4269   35.6150 C   0  0  0  0  0  0  0  0  0  0  0  0
   21.6481   20.7701   35.2015 N   0  0  0  0  0  0  0  0  0  0  0  0
   20.4318   21.0861   35.8930 C   0  0  0  0  0  0  0  0  0  0  0  0
   19.3682   20.4561   35.6423 O   0  0  0  0  0  0  0  0  0  0  0  0
   20.4371   22.1429   36.9561 C   0  0  0  0  0  0  0  0  0  0  0  0
   21.4509   23.1835   36.6815 N   0  0  0  0  0  0  0  0  0  0  0  0
   21.2545   24.4622   37.1474 C   0  0  0  0  0  0  0  0  0  0  0  0
   22.2227   25.4660   36.9315 C   0  0  0  0  0  0  0  0  0  0  0  0
   21.9926   26.8746   37.4261 C   0  0  0  0  0  0  0  0  0  0  0  0
   20.2007   24.7476   37.7832 O   0  0  0  0  0  0  0  0  0  0  0  0
   21.6636   19.7207   34.1802 C   0  0  0  0  0  0  0  0  0  0  0  0
  1  2  1  0
  2  3  2  0
  2  4  1  0
  4  5  2  0
  5  6  1  0
  6  7  2  0
  7  8  1  0
  8  9  2  0
  9 10  1  0
 10 11  2  0
 11 12  1  0
 12 13  2  0
 13 14  1  0
  1 15  1  0
 15 16  1  0
 16 17  2  0
 17 18  1  0
 18 19  1  0
 19 20  1  0
 20 21  2  0
 20 22  1  0
 22 23  1  0
 23 24  1  0
 24 25  1  0
 25 26  1  0
 24 27  2  0
 19 28  1  0
 13  4  1  0
 25 15  2  0
 12  7  1  0
 23 17  1  0
M  END
>  <AAScore>  (1) 
1460.6113178621172

>  <RootName>  (1) 
./4ZLY/04_DeltaGEst/trajectory_00/rank_00/lead_0359

$$$$
