confid_9
     RDKit          3D

 27 29  0  0  0  0  0  0  0  0999 V2000
   24.4800   26.1000   36.1300 N   0  0  0  0  0  0  0  0  0  0  0  0
   25.2500   26.2500   34.9900 C   0  0  0  0  0  0  0  0  0  0  0  0
   24.7400   25.7600   33.9900 O   0  0  0  0  0  0  0  0  0  0  0  0
   26.5900   26.8900   34.9600 C   0  0  0  0  0  0  0  0  0  0  0  0
   27.0600   27.2400   36.1600 N   0  0  0  0  0  0  0  0  0  0  0  0
   28.3000   27.7100   36.2400 N   0  0  0  0  0  0  0  0  0  0  0  0
   29.0500   27.9600   35.1500 C   0  0  0  0  0  0  0  0  0  0  0  0
   30.3400   28.4900   35.2600 C   0  0  0  0  0  0  0  0  0  0  0  0
   31.1100   28.8200   34.1400 C   0  0  0  0  0  0  0  0  0  0  0  0
   30.5200   28.6700   32.8800 C   0  0  0  0  0  0  0  0  0  0  0  0
   29.2900   28.0200   32.7700 C   0  0  0  0  0  0  0  0  0  0  0  0
   28.5200   27.7100   33.8900 C   0  0  0  0  0  0  0  0  0  0  0  0
   27.2700   27.0800   33.7600 C   0  0  0  0  0  0  0  0  0  0  0  0
   26.7500   26.8800   32.4900 N   0  0  0  0  0  0  0  0  0  0  0  0
   23.0452   26.0112   36.1560 C   0  0  0  0  0  0  0  0  0  0  0  0
   22.1735   26.3674   35.1361 C   0  0  0  0  0  0  0  0  0  0  0  0
   20.9301   26.1330   35.6834 C   0  0  0  0  0  0  0  0  0  0  0  0
   19.6779   26.3638   35.0205 N   0  0  0  0  0  0  0  0  0  0  0  0
   18.7835   25.2342   34.7595 C   0  0  0  0  0  0  0  0  0  0  0  0
   19.3862   27.6798   34.5128 C   0  0  0  0  0  0  0  0  0  0  0  0
   19.8287   28.6896   35.1257 O   0  0  0  0  0  0  0  0  0  0  0  0
   18.5820   27.8699   33.3347 N   0  0  0  0  0  0  0  0  0  0  0  0
   17.5981   28.9520   33.3079 C   0  0  0  0  0  0  0  0  0  0  0  0
   18.7485   27.0143   32.1592 C   0  0  0  0  0  0  0  0  0  0  0  0
   21.0690   25.7043   36.9553 N   0  0  0  0  0  0  0  0  0  0  0  0
   22.3569   25.6236   37.2495 N   0  0  0  0  0  0  0  0  0  0  0  0
   20.0094   25.3837   37.9044 C   0  0  0  0  0  0  0  0  0  0  0  0
  1  2  1  0
  2  3  2  0
  2  4  1  0
  4  5  2  0
  5  6  1  0
  6  7  2  0
  7  8  1  0
  8  9  2  0
  9 10  1  0
 10 11  2  0
 11 12  1  0
 12 13  2  0
 13 14  1  0
  1 15  1  0
 15 16  1  0
 16 17  2  0
 17 18  1  0
 18 19  1  0
 18 20  1  0
 20 21  2  0
 20 22  1  0
 22 23  1  0
 22 24  1  0
 17 25  1  0
 25 26  1  0
 25 27  1  0
 13  4  1  0
 26 15  2  0
 12  7  1  0
M  END
>  <AAScore>  (1) 
2206.370264798217

>  <RootName>  (1) 
./4ZLY/04_DeltaGEst/trajectory_00/rank_00/lead_0178

$$$$
