confid_7
     RDKit          3D

 28 31  0  0  0  0  0  0  0  0999 V2000
   25.3300   26.2600   34.7600 N   0  0  0  0  0  0  0  0  0  0  0  0
   26.1200   25.9200   33.6900 C   0  0  0  0  0  0  0  0  0  0  0  0
   25.6300   25.1100   32.9400 O   0  0  0  0  0  0  0  0  0  0  0  0
   27.5200   26.3800   33.4600 C   0  0  0  0  0  0  0  0  0  0  0  0
   28.1600   26.6300   34.6100 N   0  0  0  0  0  0  0  0  0  0  0  0
   29.4800   26.8500   34.5700 N   0  0  0  0  0  0  0  0  0  0  0  0
   30.1900   26.7800   33.4400 C   0  0  0  0  0  0  0  0  0  0  0  0
   31.5600   27.0500   33.5000 C   0  0  0  0  0  0  0  0  0  0  0  0
   32.2700   27.2400   32.3100 C   0  0  0  0  0  0  0  0  0  0  0  0
   31.6100   27.2500   31.0800 C   0  0  0  0  0  0  0  0  0  0  0  0
   30.2700   26.8700   31.0600 C   0  0  0  0  0  0  0  0  0  0  0  0
   29.5100   26.6900   32.2300 C   0  0  0  0  0  0  0  0  0  0  0  0
   28.1400   26.4100   32.2000 C   0  0  0  0  0  0  0  0  0  0  0  0
   27.4300   26.1300   31.0500 N   0  0  0  0  0  0  0  0  0  0  0  0
   23.8966   26.1643   34.7736 C   0  0  0  0  0  0  0  0  0  0  0  0
   23.2088   25.7676   35.8676 N   0  0  0  0  0  0  0  0  0  0  0  0
   21.9136   25.8453   35.4924 C   0  0  0  0  0  0  0  0  0  0  0  0
   21.8474   26.3039   34.1957 C   0  0  0  0  0  0  0  0  0  0  0  0
   20.6223   26.5397   33.3680 C   0  0  0  0  0  0  0  0  0  0  0  0
   20.9457   27.2081   32.0893 N   0  0  0  0  0  0  0  0  0  0  0  0
   19.9245   27.3728   31.0729 C   0  0  0  0  0  0  0  0  0  0  0  0
   20.2446   27.8306   29.9406 O   0  0  0  0  0  0  0  0  0  0  0  0
   18.4564   27.0992   31.3462 C   0  0  0  0  0  0  0  0  0  0  0  0
   17.7710   26.4735   30.1242 C   0  0  0  0  0  0  0  0  0  0  0  0
   17.7553   28.3980   31.7526 C   0  0  0  0  0  0  0  0  0  0  0  0
   22.2354   27.9161   31.9351 C   0  0  0  0  0  0  0  0  0  0  0  0
   23.4027   27.0537   32.4279 C   0  0  0  0  0  0  0  0  0  0  0  0
   23.0889   26.5168   33.7478 N   0  0  0  0  0  0  0  0  0  0  0  0
  1  2  1  0
  2  3  2  0
  2  4  1  0
  4  5  2  0
  5  6  1  0
  6  7  2  0
  7  8  1  0
  8  9  2  0
  9 10  1  0
 10 11  2  0
 11 12  1  0
 12 13  2  0
 13 14  1  0
  1 15  1  0
 15 16  2  0
 16 17  1  0
 17 18  2  0
 18 19  1  0
 19 20  1  0
 20 21  1  0
 21 22  2  0
 21 23  1  0
 23 24  1  0
 23 25  1  0
 20 26  1  0
 26 27  1  0
 27 28  1  0
 13  4  1  0
 28 15  1  0
 12  7  1  0
 28 18  1  0
M  END
>  <AAScore>  (1) 
6250.768989661709

>  <RootName>  (1) 
./4ZLY/04_DeltaGEst/trajectory_03/rank_00/lead_0000

$$$$
