confid_14
     RDKit          3D

 28 31  0  0  0  0  0  0  0  0999 V2000
   24.2000   26.2400   35.6900 N   0  0  0  0  0  0  0  0  0  0  0  0
   24.8500   26.2800   34.4800 C   0  0  0  0  0  0  0  0  0  0  0  0
   24.3100   25.7400   33.5400 O   0  0  0  0  0  0  0  0  0  0  0  0
   26.1800   26.9700   34.4700 C   0  0  0  0  0  0  0  0  0  0  0  0
   26.6500   27.6000   35.5500 N   0  0  0  0  0  0  0  0  0  0  0  0
   27.7900   28.2700   35.6200 N   0  0  0  0  0  0  0  0  0  0  0  0
   28.5400   28.3000   34.5100 C   0  0  0  0  0  0  0  0  0  0  0  0
   29.7700   28.9400   34.5600 C   0  0  0  0  0  0  0  0  0  0  0  0
   30.7000   28.8900   33.5000 C   0  0  0  0  0  0  0  0  0  0  0  0
   30.3700   28.1400   32.3700 C   0  0  0  0  0  0  0  0  0  0  0  0
   29.1200   27.5200   32.2800 C   0  0  0  0  0  0  0  0  0  0  0  0
   28.2100   27.6100   33.3300 C   0  0  0  0  0  0  0  0  0  0  0  0
   26.9700   26.9700   33.3100 C   0  0  0  0  0  0  0  0  0  0  0  0
   26.5300   26.2400   32.2200 N   0  0  0  0  0  0  0  0  0  0  0  0
   30.1409   29.6854   35.7346 N   0  0  0  0  0  0  0  0  0  0  0  0
   29.3362   30.8235   36.1909 C   0  0  0  0  0  0  0  0  0  0  0  0
   30.2445   32.0280   36.4404 C   0  0  0  0  0  0  0  0  0  0  0  0
   31.4029   31.6243   37.2443 N   0  0  0  0  0  0  0  0  0  0  0  0
   31.9645   32.5552   38.1820 C   0  0  0  0  0  0  0  0  0  0  0  0
   33.1258   33.2630   37.8462 C   0  0  0  0  0  0  0  0  0  0  0  0
   33.6625   34.1834   38.7531 C   0  0  0  0  0  0  0  0  0  0  0  0
   34.8878   34.9653   38.4009 C   0  0  0  0  0  0  0  0  0  0  0  0
   33.0453   34.3930   39.9465 N   0  0  0  0  0  0  0  0  0  0  0  0
   31.9219   33.7170   40.3037 C   0  0  0  0  0  0  0  0  0  0  0  0
   31.3606   32.7666   39.4379 C   0  0  0  0  0  0  0  0  0  0  0  0
   30.1174   32.0243   39.8442 C   0  0  0  0  0  0  0  0  0  0  0  0
   32.2023   30.4809   36.7924 C   0  0  0  0  0  0  0  0  0  0  0  0
   31.2927   29.2771   36.5445 C   0  0  0  0  0  0  0  0  0  0  0  0
  1  2  1  0
  2  3  2  0
  2  4  1  0
  4  5  2  0
  5  6  1  0
  6  7  2  0
  7  8  1  0
  8  9  2  0
  9 10  1  0
 10 11  2  0
 11 12  1  0
 12 13  2  0
 13 14  1  0
  8 15  1  0
 15 16  1  0
 16 17  1  0
 17 18  1  0
 18 19  1  0
 19 20  2  0
 20 21  1  0
 21 22  1  0
 21 23  2  0
 23 24  1  0
 24 25  2  0
 25 26  1  0
 18 27  1  0
 27 28  1  0
 13  4  1  0
 28 15  1  0
 12  7  1  0
 25 19  1  0
M  END
>  <AAScore>  (1) 
-8.454664755786276

>  <RootName>  (1) 
./4ZLY/04_DeltaGEst/trajectory_04/rank_01/lead_0249

$$$$
