confid_10
     RDKit          3D

 28 31  0  0  0  0  0  0  0  0999 V2000
   24.4800   26.1000   36.1300 N   0  0  0  0  0  0  0  0  0  0  0  0
   25.2500   26.2500   34.9900 C   0  0  0  0  0  0  0  0  0  0  0  0
   24.7400   25.7600   33.9900 O   0  0  0  0  0  0  0  0  0  0  0  0
   26.5900   26.8900   34.9600 C   0  0  0  0  0  0  0  0  0  0  0  0
   27.0600   27.2400   36.1600 N   0  0  0  0  0  0  0  0  0  0  0  0
   28.3000   27.7100   36.2400 N   0  0  0  0  0  0  0  0  0  0  0  0
   29.0500   27.9600   35.1500 C   0  0  0  0  0  0  0  0  0  0  0  0
   30.3400   28.4900   35.2600 C   0  0  0  0  0  0  0  0  0  0  0  0
   31.1100   28.8200   34.1400 C   0  0  0  0  0  0  0  0  0  0  0  0
   30.5200   28.6700   32.8800 C   0  0  0  0  0  0  0  0  0  0  0  0
   29.2900   28.0200   32.7700 C   0  0  0  0  0  0  0  0  0  0  0  0
   28.5200   27.7100   33.8900 C   0  0  0  0  0  0  0  0  0  0  0  0
   27.2700   27.0800   33.7600 C   0  0  0  0  0  0  0  0  0  0  0  0
   26.7500   26.8800   32.4900 N   0  0  0  0  0  0  0  0  0  0  0  0
   23.4315   25.1267   36.3188 C   0  0  0  0  0  0  0  0  0  0  0  0
   23.2522   24.1069   35.4320 N   0  0  0  0  0  0  0  0  0  0  0  0
   22.2878   23.1609   35.5935 C   0  0  0  0  0  0  0  0  0  0  0  0
   22.1185   22.1012   34.5426 C   0  0  0  0  0  0  0  0  0  0  0  0
   21.2727   20.9328   35.0536 C   0  0  0  0  0  0  0  0  0  0  0  0
   20.0385   21.4494   35.6816 N   0  0  0  0  0  0  0  0  0  0  0  0
   20.3749   22.1675   36.9304 C   0  0  0  0  0  0  0  0  0  0  0  0
   21.4162   23.2339   36.6959 C   0  0  0  0  0  0  0  0  0  0  0  0
   21.5984   24.2577   37.6334 C   0  0  0  0  0  0  0  0  0  0  0  0
   22.6038   25.2068   37.4465 C   0  0  0  0  0  0  0  0  0  0  0  0
   19.0845   20.3533   35.9597 C   0  0  0  0  0  0  0  0  0  0  0  0
   18.2019   20.0863   34.7358 C   0  0  0  0  0  0  0  0  0  0  0  0
   17.2716   19.0595   35.0245 O   0  0  0  0  0  0  0  0  0  0  0  0
   16.0123   19.6100   35.3443 C   0  0  0  0  0  0  0  0  0  0  0  0
  1  2  1  0
  2  3  2  0
  2  4  1  0
  4  5  2  0
  5  6  1  0
  6  7  2  0
  7  8  1  0
  8  9  2  0
  9 10  1  0
 10 11  2  0
 11 12  1  0
 12 13  2  0
 13 14  1  0
  1 15  1  0
 15 16  2  0
 16 17  1  0
 17 18  1  0
 18 19  1  0
 19 20  1  0
 20 21  1  0
 21 22  1  0
 22 23  1  0
 23 24  2  0
 20 25  1  0
 25 26  1  0
 26 27  1  0
 27 28  1  0
 13  4  1  0
 24 15  1  0
 12  7  1  0
 22 17  2  0
M  END
>  <AAScore>  (1) 
208.60931242740375

>  <RootName>  (1) 
./4ZLY/04_DeltaGEst/trajectory_00/rank_01/lead_0219

$$$$
