confid_4
     RDKit          3D

 27 30  0  0  0  0  0  0  0  0999 V2000
   24.2000   26.2400   35.6900 N   0  0  0  0  0  0  0  0  0  0  0  0
   24.8500   26.2800   34.4800 C   0  0  0  0  0  0  0  0  0  0  0  0
   24.3100   25.7400   33.5400 O   0  0  0  0  0  0  0  0  0  0  0  0
   26.1800   26.9700   34.4700 C   0  0  0  0  0  0  0  0  0  0  0  0
   26.6500   27.6000   35.5500 N   0  0  0  0  0  0  0  0  0  0  0  0
   27.7900   28.2700   35.6200 N   0  0  0  0  0  0  0  0  0  0  0  0
   28.5400   28.3000   34.5100 C   0  0  0  0  0  0  0  0  0  0  0  0
   29.7700   28.9400   34.5600 C   0  0  0  0  0  0  0  0  0  0  0  0
   30.7000   28.8900   33.5000 C   0  0  0  0  0  0  0  0  0  0  0  0
   30.3700   28.1400   32.3700 C   0  0  0  0  0  0  0  0  0  0  0  0
   29.1200   27.5200   32.2800 C   0  0  0  0  0  0  0  0  0  0  0  0
   28.2100   27.6100   33.3300 C   0  0  0  0  0  0  0  0  0  0  0  0
   26.9700   26.9700   33.3100 C   0  0  0  0  0  0  0  0  0  0  0  0
   26.5300   26.2400   32.2200 N   0  0  0  0  0  0  0  0  0  0  0  0
   30.1426   29.6567   35.7483 N   0  0  0  0  0  0  0  0  0  0  0  0
   30.7437   28.9234   36.8670 C   0  0  0  0  0  0  0  0  0  0  0  0
   30.3978   29.5930   38.2007 C   0  0  0  0  0  0  0  0  0  0  0  0
   30.7232   31.0667   38.1755 C   0  0  0  0  0  0  0  0  0  0  0  0
   31.0832   31.7215   39.3633 C   0  0  0  0  0  0  0  0  0  0  0  0
   31.3215   33.0969   39.3656 C   0  0  0  0  0  0  0  0  0  0  0  0
   31.1882   33.8338   38.1874 C   0  0  0  0  0  0  0  0  0  0  0  0
   30.8124   33.1993   36.9987 C   0  0  0  0  0  0  0  0  0  0  0  0
   30.6943   33.9413   35.8682 F   0  0  0  0  0  0  0  0  0  0  0  0
   30.5720   31.8100   36.9847 C   0  0  0  0  0  0  0  0  0  0  0  0
   30.1758   31.0954   35.7493 C   0  0  0  0  0  0  0  0  0  0  0  0
   29.8510   31.7361   34.7120 O   0  0  0  0  0  0  0  0  0  0  0  0
   31.4213   35.1697   38.1991 F   0  0  0  0  0  0  0  0  0  0  0  0
  1  2  1  0
  2  3  2  0
  2  4  1  0
  4  5  2  0
  5  6  1  0
  6  7  2  0
  7  8  1  0
  8  9  2  0
  9 10  1  0
 10 11  2  0
 11 12  1  0
 12 13  2  0
 13 14  1  0
  8 15  1  0
 15 16  1  0
 16 17  1  0
 17 18  1  0
 18 19  2  0
 19 20  1  0
 20 21  2  0
 21 22  1  0
 22 23  1  0
 22 24  2  0
 24 25  1  0
 25 26  2  0
 21 27  1  0
 13  4  1  0
 25 15  1  0
 12  7  1  0
 24 18  1  0
M  END
>  <AAScore>  (1) 
-7.637137279001716

>  <RootName>  (1) 
./4ZLY/04_DeltaGEst/trajectory_04/rank_01/lead_0274

$$$$
