confid_0
     RDKit          3D

 27 30  0  0  0  0  0  0  0  0999 V2000
   24.2000   26.2400   35.6900 N   0  0  0  0  0  0  0  0  0  0  0  0
   24.8500   26.2800   34.4800 C   0  0  0  0  0  0  0  0  0  0  0  0
   24.3100   25.7400   33.5400 O   0  0  0  0  0  0  0  0  0  0  0  0
   26.1800   26.9700   34.4700 C   0  0  0  0  0  0  0  0  0  0  0  0
   26.6500   27.6000   35.5500 N   0  0  0  0  0  0  0  0  0  0  0  0
   27.7900   28.2700   35.6200 N   0  0  0  0  0  0  0  0  0  0  0  0
   28.5400   28.3000   34.5100 C   0  0  0  0  0  0  0  0  0  0  0  0
   29.7700   28.9400   34.5600 C   0  0  0  0  0  0  0  0  0  0  0  0
   30.7000   28.8900   33.5000 C   0  0  0  0  0  0  0  0  0  0  0  0
   30.3700   28.1400   32.3700 C   0  0  0  0  0  0  0  0  0  0  0  0
   29.1200   27.5200   32.2800 C   0  0  0  0  0  0  0  0  0  0  0  0
   28.2100   27.6100   33.3300 C   0  0  0  0  0  0  0  0  0  0  0  0
   26.9700   26.9700   33.3100 C   0  0  0  0  0  0  0  0  0  0  0  0
   26.5300   26.2400   32.2200 N   0  0  0  0  0  0  0  0  0  0  0  0
   30.1389   29.6711   35.7435 N   0  0  0  0  0  0  0  0  0  0  0  0
   31.1086   29.0650   36.6544 C   0  0  0  0  0  0  0  0  0  0  0  0
   30.5168   28.9593   38.0584 C   0  0  0  0  0  0  0  0  0  0  0  0
   30.8913   30.1658   38.9094 C   0  0  0  0  0  0  0  0  0  0  0  0
   30.3602   31.4908   38.4144 C   0  0  0  0  0  0  0  0  0  0  0  0
   30.3771   32.5996   39.1952 N   0  0  0  0  0  0  0  0  0  0  0  0
   29.8752   33.6224   38.4807 C   0  0  0  0  0  0  0  0  0  0  0  0
   29.5497   33.1799   37.2243 C   0  0  0  0  0  0  0  0  0  0  0  0
   29.0352   33.9514   36.2347 F   0  0  0  0  0  0  0  0  0  0  0  0
   29.8591   31.8286   37.1469 C   0  0  0  0  0  0  0  0  0  0  0  0
   29.6177   31.0046   35.9310 C   0  0  0  0  0  0  0  0  0  0  0  0
   28.9193   31.5130   35.0103 O   0  0  0  0  0  0  0  0  0  0  0  0
   30.8383   32.6924   40.5798 C   0  0  0  0  0  0  0  0  0  0  0  0
  1  2  1  0
  2  3  2  0
  2  4  1  0
  4  5  2  0
  5  6  1  0
  6  7  2  0
  7  8  1  0
  8  9  2  0
  9 10  1  0
 10 11  2  0
 11 12  1  0
 12 13  2  0
 13 14  1  0
  8 15  1  0
 15 16  1  0
 16 17  1  0
 17 18  1  0
 18 19  1  0
 19 20  1  0
 20 21  1  0
 21 22  2  0
 22 23  1  0
 22 24  1  0
 24 25  1  0
 25 26  2  0
 20 27  1  0
 13  4  1  0
 25 15  1  0
 12  7  1  0
 24 19  2  0
M  END
>  <AAScore>  (1) 
-6.294972849125346

>  <RootName>  (1) 
./4ZLY/04_DeltaGEst/trajectory_04/rank_01/lead_0365

$$$$
