confid_12
     RDKit          3D

 28 31  0  0  0  0  0  0  0  0999 V2000
   24.6900   26.1200   35.5300 N   0  0  0  0  0  0  0  0  0  0  0  0
   25.6600   25.6700   34.6600 C   0  0  0  0  0  0  0  0  0  0  0  0
   25.2400   25.0100   33.7200 O   0  0  0  0  0  0  0  0  0  0  0  0
   27.0300   26.2200   34.8800 C   0  0  0  0  0  0  0  0  0  0  0  0
   27.3500   26.7300   36.0700 N   0  0  0  0  0  0  0  0  0  0  0  0
   28.5700   27.1800   36.3300 N   0  0  0  0  0  0  0  0  0  0  0  0
   29.5300   27.1100   35.3900 C   0  0  0  0  0  0  0  0  0  0  0  0
   30.8300   27.5700   35.6500 C   0  0  0  0  0  0  0  0  0  0  0  0
   31.8500   27.5400   34.6900 C   0  0  0  0  0  0  0  0  0  0  0  0
   31.5100   27.1200   33.4000 C   0  0  0  0  0  0  0  0  0  0  0  0
   30.2200   26.6300   33.1100 C   0  0  0  0  0  0  0  0  0  0  0  0
   29.2400   26.6600   34.1000 C   0  0  0  0  0  0  0  0  0  0  0  0
   27.9300   26.2600   33.8100 C   0  0  0  0  0  0  0  0  0  0  0  0
   27.5200   25.7100   32.6100 N   0  0  0  0  0  0  0  0  0  0  0  0
   31.1872   28.0724   36.9979 C   0  0  0  0  0  0  0  0  0  0  0  0
   31.8984   29.2254   37.2676 C   0  0  0  0  0  0  0  0  0  0  0  0
   32.0477   29.2688   38.6387 C   0  0  0  0  0  0  0  0  0  0  0  0
   32.8635   30.2756   39.3824 C   0  0  0  0  0  0  0  0  0  0  0  0
   32.5255   30.2800   40.8101 N   0  0  0  0  0  0  0  0  0  0  0  0
   32.0262   29.0875   41.4542 C   0  0  0  0  0  0  0  0  0  0  0  0
   31.9696   29.0245   42.7125 O   0  0  0  0  0  0  0  0  0  0  0  0
   31.5703   27.8954   40.6562 C   0  0  0  0  0  0  0  0  0  0  0  0
   31.4773   28.1962   39.2249 N   0  0  0  0  0  0  0  0  0  0  0  0
   30.9666   27.4433   38.2140 C   0  0  0  0  0  0  0  0  0  0  0  0
   30.3609   26.1783   38.3128 O   0  0  0  0  0  0  0  0  0  0  0  0
   29.9943   25.5048   39.5084 C   0  0  0  0  0  0  0  0  0  0  0  0
   32.8743   31.4601   41.6124 C   0  0  0  0  0  0  0  0  0  0  0  0
   31.6149   32.2127   42.0277 C   0  0  0  0  0  0  0  0  0  0  0  0
  1  2  1  0
  2  3  2  0
  2  4  1  0
  4  5  2  0
  5  6  1  0
  6  7  2  0
  7  8  1  0
  8  9  2  0
  9 10  1  0
 10 11  2  0
 11 12  1  0
 12 13  2  0
 13 14  1  0
  8 15  1  0
 15 16  1  0
 16 17  2  0
 17 18  1  0
 18 19  1  0
 19 20  1  0
 20 21  2  0
 20 22  1  0
 22 23  1  0
 23 24  1  0
 24 25  1  0
 25 26  1  0
 19 27  1  0
 27 28  1  0
 13  4  1  0
 24 15  2  0
 12  7  1  0
 23 17  1  0
M  END
>  <AAScore>  (1) 
59.6900579740715

>  <RootName>  (1) 
./4ZLY/04_DeltaGEst/trajectory_02/rank_01/lead_0379

$$$$
