confid_17
     RDKit          3D

 27 30  0  0  0  0  0  0  0  0999 V2000
   24.2000   26.2400   35.6900 N   0  0  0  0  0  0  0  0  0  0  0  0
   24.8500   26.2800   34.4800 C   0  0  0  0  0  0  0  0  0  0  0  0
   24.3100   25.7400   33.5400 O   0  0  0  0  0  0  0  0  0  0  0  0
   26.1800   26.9700   34.4700 C   0  0  0  0  0  0  0  0  0  0  0  0
   26.6500   27.6000   35.5500 N   0  0  0  0  0  0  0  0  0  0  0  0
   27.7900   28.2700   35.6200 N   0  0  0  0  0  0  0  0  0  0  0  0
   28.5400   28.3000   34.5100 C   0  0  0  0  0  0  0  0  0  0  0  0
   29.7700   28.9400   34.5600 C   0  0  0  0  0  0  0  0  0  0  0  0
   30.7000   28.8900   33.5000 C   0  0  0  0  0  0  0  0  0  0  0  0
   30.3700   28.1400   32.3700 C   0  0  0  0  0  0  0  0  0  0  0  0
   29.1200   27.5200   32.2800 C   0  0  0  0  0  0  0  0  0  0  0  0
   28.2100   27.6100   33.3300 C   0  0  0  0  0  0  0  0  0  0  0  0
   26.9700   26.9700   33.3100 C   0  0  0  0  0  0  0  0  0  0  0  0
   26.5300   26.2400   32.2200 N   0  0  0  0  0  0  0  0  0  0  0  0
   30.1395   29.6597   35.7468 N   0  0  0  0  0  0  0  0  0  0  0  0
   30.2977   31.1118   35.6872 C   0  0  0  0  0  0  0  0  0  0  0  0
   29.7267   31.7331   36.9580 C   0  0  0  0  0  0  0  0  0  0  0  0
   30.2489   31.0460   38.1946 C   0  0  0  0  0  0  0  0  0  0  0  0
   30.2198   31.7284   39.4187 C   0  0  0  0  0  0  0  0  0  0  0  0
   30.6451   31.1033   40.6006 C   0  0  0  0  0  0  0  0  0  0  0  0
   30.6275   31.8594   41.8999 C   0  0  0  0  0  0  0  0  0  0  0  0
   31.1059   29.7749   40.5627 C   0  0  0  0  0  0  0  0  0  0  0  0
   31.1184   29.0837   39.3365 C   0  0  0  0  0  0  0  0  0  0  0  0
   30.6819   29.7029   38.1567 C   0  0  0  0  0  0  0  0  0  0  0  0
   30.7412   28.9238   36.8629 C   0  0  0  0  0  0  0  0  0  0  0  0
   31.5428   29.1755   41.7563 O   0  0  0  0  0  0  0  0  0  0  0  0
   32.0337   27.8429   41.8597 C   0  0  0  0  0  0  0  0  0  0  0  0
  1  2  1  0
  2  3  2  0
  2  4  1  0
  4  5  2  0
  5  6  1  0
  6  7  2  0
  7  8  1  0
  8  9  2  0
  9 10  1  0
 10 11  2  0
 11 12  1  0
 12 13  2  0
 13 14  1  0
  8 15  1  0
 15 16  1  0
 16 17  1  0
 17 18  1  0
 18 19  2  0
 19 20  1  0
 20 21  1  0
 20 22  2  0
 22 23  1  0
 23 24  2  0
 24 25  1  0
 22 26  1  0
 26 27  1  0
 13  4  1  0
 25 15  1  0
 12  7  1  0
 24 18  1  0
M  END
>  <AAScore>  (1) 
-8.570422310215674

>  <RootName>  (1) 
./4ZLY/04_DeltaGEst/trajectory_04/rank_01/lead_0339

$$$$
