confid_17
     RDKit          3D

 27 30  0  0  0  0  0  0  0  0999 V2000
   24.4800   26.1000   36.1300 N   0  0  0  0  0  0  0  0  0  0  0  0
   25.2500   26.2500   34.9900 C   0  0  0  0  0  0  0  0  0  0  0  0
   24.7400   25.7600   33.9900 O   0  0  0  0  0  0  0  0  0  0  0  0
   26.5900   26.8900   34.9600 C   0  0  0  0  0  0  0  0  0  0  0  0
   27.0600   27.2400   36.1600 N   0  0  0  0  0  0  0  0  0  0  0  0
   28.3000   27.7100   36.2400 N   0  0  0  0  0  0  0  0  0  0  0  0
   29.0500   27.9600   35.1500 C   0  0  0  0  0  0  0  0  0  0  0  0
   30.3400   28.4900   35.2600 C   0  0  0  0  0  0  0  0  0  0  0  0
   31.1100   28.8200   34.1400 C   0  0  0  0  0  0  0  0  0  0  0  0
   30.5200   28.6700   32.8800 C   0  0  0  0  0  0  0  0  0  0  0  0
   29.2900   28.0200   32.7700 C   0  0  0  0  0  0  0  0  0  0  0  0
   28.5200   27.7100   33.8900 C   0  0  0  0  0  0  0  0  0  0  0  0
   27.2700   27.0800   33.7600 C   0  0  0  0  0  0  0  0  0  0  0  0
   26.7500   26.8800   32.4900 N   0  0  0  0  0  0  0  0  0  0  0  0
   23.0440   26.0167   36.1523 C   0  0  0  0  0  0  0  0  0  0  0  0
   22.2958   25.7033   37.2782 C   0  0  0  0  0  0  0  0  0  0  0  0
   20.9114   25.7585   37.0516 C   0  0  0  0  0  0  0  0  0  0  0  0
   19.8980   25.4658   38.1132 C   0  0  0  0  0  0  0  0  0  0  0  0
   19.0624   24.2159   37.7805 C   0  0  0  0  0  0  0  0  0  0  0  0
   18.4582   24.1997   36.4227 N   0  0  0  0  0  0  0  0  0  0  0  0
   19.1313   23.3027   35.4590 C   0  0  0  0  0  0  0  0  0  0  0  0
   18.6455   21.8620   35.6390 C   0  0  0  0  0  0  0  0  0  0  0  0
   17.2551   21.7849   35.4746 O   0  0  0  0  0  0  0  0  0  0  0  0
   18.0657   25.5180   35.8751 C   0  0  0  0  0  0  0  0  0  0  0  0
   19.2013   26.2898   35.1601 C   0  0  0  0  0  0  0  0  0  0  0  0
   20.5761   26.1155   35.7445 C   0  0  0  0  0  0  0  0  0  0  0  0
   21.9970   26.3872   34.8841 S   0  0  0  0  0  0  0  0  0  0  0  0
  1  2  1  0
  2  3  2  0
  2  4  1  0
  4  5  2  0
  5  6  1  0
  6  7  2  0
  7  8  1  0
  8  9  2  0
  9 10  1  0
 10 11  2  0
 11 12  1  0
 12 13  2  0
 13 14  1  0
  1 15  1  0
 15 16  2  0
 16 17  1  0
 17 18  1  0
 18 19  1  0
 19 20  1  0
 20 21  1  0
 21 22  1  0
 22 23  1  0
 20 24  1  0
 24 25  1  0
 25 26  1  0
 26 27  1  0
 13  4  1  0
 27 15  1  0
 12  7  1  0
 26 17  2  0
M  END
>  <AAScore>  (1) 
1982.8655920989836

>  <RootName>  (1) 
./4ZLY/04_DeltaGEst/trajectory_00/rank_00/lead_0267

$$$$
