confid_1
     RDKit          3D

 31 35  0  0  0  0  0  0  0  0999 V2000
   24.6900   26.1200   35.5300 N   0  0  0  0  0  0  0  0  0  0  0  0
   25.6600   25.6700   34.6600 C   0  0  0  0  0  0  0  0  0  0  0  0
   25.2400   25.0100   33.7200 O   0  0  0  0  0  0  0  0  0  0  0  0
   27.0300   26.2200   34.8800 C   0  0  0  0  0  0  0  0  0  0  0  0
   27.3500   26.7300   36.0700 N   0  0  0  0  0  0  0  0  0  0  0  0
   28.5700   27.1800   36.3300 N   0  0  0  0  0  0  0  0  0  0  0  0
   29.5300   27.1100   35.3900 C   0  0  0  0  0  0  0  0  0  0  0  0
   30.8300   27.5700   35.6500 C   0  0  0  0  0  0  0  0  0  0  0  0
   31.8500   27.5400   34.6900 C   0  0  0  0  0  0  0  0  0  0  0  0
   31.5100   27.1200   33.4000 C   0  0  0  0  0  0  0  0  0  0  0  0
   30.2200   26.6300   33.1100 C   0  0  0  0  0  0  0  0  0  0  0  0
   29.2400   26.6600   34.1000 C   0  0  0  0  0  0  0  0  0  0  0  0
   27.9300   26.2600   33.8100 C   0  0  0  0  0  0  0  0  0  0  0  0
   27.5200   25.7100   32.6100 N   0  0  0  0  0  0  0  0  0  0  0  0
   23.3308   26.4301   35.1652 C   0  0  0  0  0  0  0  0  0  0  0  0
   22.4671   26.6488   36.1201 N   0  0  0  0  0  0  0  0  0  0  0  0
   21.0755   26.9002   35.8960 C   0  0  0  0  0  0  0  0  0  0  0  0
   20.3518   26.0083   35.2327 C   0  0  0  0  0  0  0  0  0  0  0  0
   19.0331   25.8728   34.5337 C   0  0  0  0  0  0  0  0  0  0  0  0
   19.3041   24.6139   34.0002 O   0  0  0  0  0  0  0  0  0  0  0  0
   20.5189   24.6202   34.6812 C   0  0  1  0  0  0  0  0  0  0  0  0
   21.7382   24.4118   33.7558 C   0  0  0  0  0  0  0  0  0  0  0  0
   22.2195   25.6771   33.0725 C   0  0  0  0  0  0  0  0  0  0  0  0
   22.9474   26.6223   33.7275 C   0  0  0  0  0  0  0  0  0  0  0  0
   23.2740   27.8704   33.0548 N   0  0  0  0  0  0  0  0  0  0  0  0
   22.5554   28.2260   31.8531 C   0  0  0  0  0  0  0  0  0  0  0  0
   22.7690   29.3252   31.2725 O   0  0  0  0  0  0  0  0  0  0  0  0
   21.5024   27.3077   31.3194 C   0  0  0  0  0  0  0  0  0  0  0  0
   21.9016   25.8641   31.6085 C   0  0  0  0  0  0  0  0  0  0  0  0
   24.2082   28.8453   33.6423 C   0  0  0  0  0  0  0  0  0  0  0  0
   23.4652   29.8377   34.5316 C   0  0  0  0  0  0  0  0  0  0  0  0
  1  2  1  0
  2  3  2  0
  2  4  1  0
  4  5  2  0
  5  6  1  0
  6  7  2  0
  7  8  1  0
  8  9  2  0
  9 10  1  0
 10 11  2  0
 11 12  1  0
 12 13  2  0
 13 14  1  0
  1 15  1  0
 15 16  2  0
 16 17  1  0
 17 18  2  0
 18 19  1  0
 19 20  1  0
 20 21  1  0
 21 22  1  6
 22 23  1  0
 23 24  2  0
 24 25  1  0
 25 26  1  0
 26 27  2  0
 26 28  1  0
 28 29  1  0
 25 30  1  0
 30 31  1  0
 13  4  1  0
 24 15  1  0
 12  7  1  0
 21 18  1  0
 29 23  1  0
M  END
>  <AAScore>  (1) 
55840.92999976309

>  <RootName>  (1) 
./4ZLY/04_DeltaGEst/trajectory_02/rank_00/lead_0126

$$$$
