confid_1
     RDKit          3D

 27 30  0  0  0  0  0  0  0  0999 V2000
   24.2000   26.2400   35.6900 N   0  0  0  0  0  0  0  0  0  0  0  0
   24.8500   26.2800   34.4800 C   0  0  0  0  0  0  0  0  0  0  0  0
   24.3100   25.7400   33.5400 O   0  0  0  0  0  0  0  0  0  0  0  0
   26.1800   26.9700   34.4700 C   0  0  0  0  0  0  0  0  0  0  0  0
   26.6500   27.6000   35.5500 N   0  0  0  0  0  0  0  0  0  0  0  0
   27.7900   28.2700   35.6200 N   0  0  0  0  0  0  0  0  0  0  0  0
   28.5400   28.3000   34.5100 C   0  0  0  0  0  0  0  0  0  0  0  0
   29.7700   28.9400   34.5600 C   0  0  0  0  0  0  0  0  0  0  0  0
   30.7000   28.8900   33.5000 C   0  0  0  0  0  0  0  0  0  0  0  0
   30.3700   28.1400   32.3700 C   0  0  0  0  0  0  0  0  0  0  0  0
   29.1200   27.5200   32.2800 C   0  0  0  0  0  0  0  0  0  0  0  0
   28.2100   27.6100   33.3300 C   0  0  0  0  0  0  0  0  0  0  0  0
   26.9700   26.9700   33.3100 C   0  0  0  0  0  0  0  0  0  0  0  0
   26.5300   26.2400   32.2200 N   0  0  0  0  0  0  0  0  0  0  0  0
   30.1406   29.6763   35.7407 N   0  0  0  0  0  0  0  0  0  0  0  0
   31.1235   29.0988   36.6681 C   0  0  0  0  0  0  0  0  0  0  0  0
   32.5302   29.6854   36.4409 C   0  0  0  0  0  0  0  0  0  0  0  0
   32.5438   31.1680   36.0264 C   0  0  0  0  0  0  0  0  0  0  0  0
   31.6151   32.0046   36.8658 C   0  0  0  0  0  0  0  0  0  0  0  0
   31.9931   33.0026   37.6981 N   0  0  0  0  0  0  0  0  0  0  0  0
   30.8707   33.5254   38.2335 C   0  0  0  0  0  0  0  0  0  0  0  0
   29.7698   32.8504   37.7475 C   0  0  0  0  0  0  0  0  0  0  0  0
   28.3977   33.1276   38.0792 C   0  0  0  0  0  0  0  0  0  0  0  0
   27.2937   33.3500   38.3454 N   0  0  0  0  0  0  0  0  0  0  0  0
   30.2335   31.8724   36.8862 C   0  0  0  0  0  0  0  0  0  0  0  0
   29.3957   30.8960   36.0970 C   0  0  0  0  0  0  0  0  0  0  0  0
   33.3532   33.4658   37.9593 C   0  0  0  0  0  0  0  0  0  0  0  0
  1  2  1  0
  2  3  2  0
  2  4  1  0
  4  5  2  0
  5  6  1  0
  6  7  2  0
  7  8  1  0
  8  9  2  0
  9 10  1  0
 10 11  2  0
 11 12  1  0
 12 13  2  0
 13 14  1  0
  8 15  1  0
 15 16  1  0
 16 17  1  0
 17 18  1  0
 18 19  1  0
 19 20  1  0
 20 21  1  0
 21 22  2  0
 22 23  1  0
 23 24  3  0
 22 25  1  0
 25 26  1  0
 20 27  1  0
 13  4  1  0
 26 15  1  0
 12  7  1  0
 25 19  2  0
M  END
>  <AAScore>  (1) 
-1.4438119081097969

>  <RootName>  (1) 
./4ZLY/04_DeltaGEst/trajectory_04/rank_01/lead_0016

$$$$
