confid_9
     RDKit          3D

 30 34  0  0  0  0  0  0  0  0999 V2000
   24.2000   26.2400   35.6900 N   0  0  0  0  0  0  0  0  0  0  0  0
   24.8500   26.2800   34.4800 C   0  0  0  0  0  0  0  0  0  0  0  0
   24.3100   25.7400   33.5400 O   0  0  0  0  0  0  0  0  0  0  0  0
   26.1800   26.9700   34.4700 C   0  0  0  0  0  0  0  0  0  0  0  0
   26.6500   27.6000   35.5500 N   0  0  0  0  0  0  0  0  0  0  0  0
   27.7900   28.2700   35.6200 N   0  0  0  0  0  0  0  0  0  0  0  0
   28.5400   28.3000   34.5100 C   0  0  0  0  0  0  0  0  0  0  0  0
   29.7700   28.9400   34.5600 C   0  0  0  0  0  0  0  0  0  0  0  0
   30.7000   28.8900   33.5000 C   0  0  0  0  0  0  0  0  0  0  0  0
   30.3700   28.1400   32.3700 C   0  0  0  0  0  0  0  0  0  0  0  0
   29.1200   27.5200   32.2800 C   0  0  0  0  0  0  0  0  0  0  0  0
   28.2100   27.6100   33.3300 C   0  0  0  0  0  0  0  0  0  0  0  0
   26.9700   26.9700   33.3100 C   0  0  0  0  0  0  0  0  0  0  0  0
   26.5300   26.2400   32.2200 N   0  0  0  0  0  0  0  0  0  0  0  0
   22.7819   26.0687   35.8494 C   0  0  0  0  0  0  0  0  0  0  0  0
   22.3304   25.4896   36.9475 N   0  0  0  0  0  0  0  0  0  0  0  0
   20.9407   25.2587   37.3310 C   0  0  0  0  0  0  0  0  0  0  0  0
   20.6687   24.6418   38.6825 C   0  0  0  0  0  0  0  0  0  0  0  0
   19.1923   24.5491   39.0836 C   0  0  0  0  0  0  0  0  0  0  0  0
   18.4561   23.7582   38.0703 N   0  0  0  0  0  0  0  0  0  0  0  0
   17.8696   22.5418   38.6567 C   0  0  0  0  0  0  0  0  0  0  0  0
   17.4169   24.5436   37.3696 C   0  0  0  0  0  0  0  0  0  0  0  0
   17.9673   25.8134   36.6913 C   0  0  0  0  0  0  0  0  0  0  0  0
   19.7505   25.6891   36.2716 S   0  0  0  0  0  4  0  0  0  0  0  0
   20.5130   26.4954   34.9234 C   0  0  0  0  0  0  0  0  0  0  0  0
   20.3134   27.2583   33.7312 N   0  0  0  0  0  0  0  0  0  0  0  0
   19.1633   27.8005   33.0304 C   0  0  0  0  0  0  0  0  0  0  0  0
   21.7144   27.4087   33.6438 C   0  0  0  0  0  0  0  0  0  0  0  0
   22.5099   28.0046   32.8712 O   0  0  0  0  0  0  0  0  0  0  0  0
   21.8240   26.6036   34.8498 C   0  0  0  0  0  0  0  0  0  0  0  0
  1  2  1  0
  2  3  2  0
  2  4  1  0
  4  5  2  0
  5  6  1  0
  6  7  2  0
  7  8  1  0
  8  9  2  0
  9 10  1  0
 10 11  2  0
 11 12  1  0
 12 13  2  0
 13 14  1  0
  1 15  1  0
 15 16  2  0
 16 17  1  0
 17 18  1  0
 18 19  1  0
 19 20  1  0
 20 21  1  0
 20 22  1  0
 22 23  1  0
 23 24  1  0
 24 25  1  0
 25 26  1  0
 26 27  1  0
 26 28  1  0
 28 29  2  0
 28 30  1  0
 13  4  1  0
 30 15  1  0
 12  7  1  0
 24 17  2  0
 30 25  2  0
M  END
>  <AAScore>  (1) 
3960.332875375527

>  <RootName>  (1) 
./4ZLY/04_DeltaGEst/trajectory_04/rank_00/lead_0448

$$$$
