confid_0
     RDKit          3D

 29 32  0  0  0  0  0  0  0  0999 V2000
   24.2000   26.2400   35.6900 N   0  0  0  0  0  0  0  0  0  0  0  0
   24.8500   26.2800   34.4800 C   0  0  0  0  0  0  0  0  0  0  0  0
   24.3100   25.7400   33.5400 O   0  0  0  0  0  0  0  0  0  0  0  0
   26.1800   26.9700   34.4700 C   0  0  0  0  0  0  0  0  0  0  0  0
   26.6500   27.6000   35.5500 N   0  0  0  0  0  0  0  0  0  0  0  0
   27.7900   28.2700   35.6200 N   0  0  0  0  0  0  0  0  0  0  0  0
   28.5400   28.3000   34.5100 C   0  0  0  0  0  0  0  0  0  0  0  0
   29.7700   28.9400   34.5600 C   0  0  0  0  0  0  0  0  0  0  0  0
   30.7000   28.8900   33.5000 C   0  0  0  0  0  0  0  0  0  0  0  0
   30.3700   28.1400   32.3700 C   0  0  0  0  0  0  0  0  0  0  0  0
   29.1200   27.5200   32.2800 C   0  0  0  0  0  0  0  0  0  0  0  0
   28.2100   27.6100   33.3300 C   0  0  0  0  0  0  0  0  0  0  0  0
   26.9700   26.9700   33.3100 C   0  0  0  0  0  0  0  0  0  0  0  0
   26.5300   26.2400   32.2200 N   0  0  0  0  0  0  0  0  0  0  0  0
   22.7945   25.9721   35.8326 C   0  0  0  0  0  0  0  0  0  0  0  0
   21.9067   26.0426   34.8216 N   0  0  0  0  0  0  0  0  0  0  0  0
   20.7211   25.7728   35.4102 C   0  0  0  0  0  0  0  0  0  0  0  0
   19.4353   25.7254   34.6454 C   0  0  0  0  0  0  0  0  0  0  0  0
   18.4446   26.8032   35.1271 C   0  0  0  0  0  0  0  0  0  0  0  0
   18.4304   26.9833   36.6014 N   0  0  0  0  0  0  0  0  0  0  0  0
   18.3590   25.6819   37.3070 C   0  0  0  0  0  0  0  0  0  0  0  0
   19.7674   25.2019   37.7081 C   0  0  0  0  0  0  0  0  0  0  0  0
   20.8241   25.5587   36.7454 N   0  0  0  0  0  0  0  0  0  0  0  0
   22.1448   25.6552   37.0097 C   0  0  0  0  0  0  0  0  0  0  0  0
   22.7724   25.4977   38.3636 C   0  0  0  0  0  0  0  0  0  0  0  0
   17.3259   27.8760   37.0248 C   0  0  0  0  0  0  0  0  0  0  0  0
   17.5551   29.3270   36.5845 C   0  0  0  0  0  0  0  0  0  0  0  0
   17.1657   29.5023   35.2693 F   0  0  0  0  0  0  0  0  0  0  0  0
   16.8056   30.1763   37.3784 F   0  0  0  0  0  0  0  0  0  0  0  0
  1  2  1  0
  2  3  2  0
  2  4  1  0
  4  5  2  0
  5  6  1  0
  6  7  2  0
  7  8  1  0
  8  9  2  0
  9 10  1  0
 10 11  2  0
 11 12  1  0
 12 13  2  0
 13 14  1  0
  1 15  1  0
 15 16  1  0
 16 17  2  0
 17 18  1  0
 18 19  1  0
 19 20  1  0
 20 21  1  0
 21 22  1  0
 22 23  1  0
 23 24  1  0
 24 25  1  0
 20 26  1  0
 26 27  1  0
 27 28  1  0
 27 29  1  0
 13  4  1  0
 24 15  2  0
 12  7  1  0
 23 17  1  0
M  END
>  <AAScore>  (1) 
1030.1620978276935

>  <RootName>  (1) 
./4ZLY/04_DeltaGEst/trajectory_04/rank_00/lead_0082

$$$$
