confid_15
     RDKit          3D

 27 30  0  0  0  0  0  0  0  0999 V2000
   24.4800   26.1000   36.1300 N   0  0  0  0  0  0  0  0  0  0  0  0
   25.2500   26.2500   34.9900 C   0  0  0  0  0  0  0  0  0  0  0  0
   24.7400   25.7600   33.9900 O   0  0  0  0  0  0  0  0  0  0  0  0
   26.5900   26.8900   34.9600 C   0  0  0  0  0  0  0  0  0  0  0  0
   27.0600   27.2400   36.1600 N   0  0  0  0  0  0  0  0  0  0  0  0
   28.3000   27.7100   36.2400 N   0  0  0  0  0  0  0  0  0  0  0  0
   29.0500   27.9600   35.1500 C   0  0  0  0  0  0  0  0  0  0  0  0
   30.3400   28.4900   35.2600 C   0  0  0  0  0  0  0  0  0  0  0  0
   31.1100   28.8200   34.1400 C   0  0  0  0  0  0  0  0  0  0  0  0
   30.5200   28.6700   32.8800 C   0  0  0  0  0  0  0  0  0  0  0  0
   29.2900   28.0200   32.7700 C   0  0  0  0  0  0  0  0  0  0  0  0
   28.5200   27.7100   33.8900 C   0  0  0  0  0  0  0  0  0  0  0  0
   27.2700   27.0800   33.7600 C   0  0  0  0  0  0  0  0  0  0  0  0
   26.7500   26.8800   32.4900 N   0  0  0  0  0  0  0  0  0  0  0  0
   23.0443   26.1768   36.1648 C   0  0  0  0  0  0  0  0  0  0  0  0
   22.3798   25.8807   37.2345 N   0  0  0  0  0  0  0  0  0  0  0  0
   21.0076   26.1091   36.9541 C   0  0  0  0  0  0  0  0  0  0  0  0
   20.8377   26.5485   35.7173 C   0  0  0  0  0  0  0  0  0  0  0  0
   19.5207   26.9121   35.1048 C   0  0  0  0  0  0  0  0  0  0  0  0
   19.0595   28.2222   35.6131 N   0  0  0  0  0  0  0  0  0  0  0  0
   17.6177   28.3697   35.3505 C   0  0  0  0  0  0  0  0  0  0  0  0
   19.8069   29.3450   34.9955 C   0  0  0  0  0  0  0  0  0  0  0  0
   21.0216   29.6953   35.8153 C   0  0  0  0  0  0  0  0  0  0  0  0
   22.1912   29.1543   35.6366 N   0  0  0  0  0  0  0  0  0  0  0  0
   22.4722   28.1034   34.7056 C   0  0  0  0  0  0  0  0  0  0  0  0
   23.0632   28.3737   33.6272 O   0  0  0  0  0  0  0  0  0  0  0  0
   22.1649   26.6718   35.0485 C   0  0  1  0  0  0  0  0  0  0  0  0
  1  2  1  0
  2  3  2  0
  2  4  1  0
  4  5  2  0
  5  6  1  0
  6  7  2  0
  7  8  1  0
  8  9  2  0
  9 10  1  0
 10 11  2  0
 11 12  1  0
 12 13  2  0
 13 14  1  0
  1 15  1  0
 15 16  2  0
 16 17  1  0
 17 18  2  0
 18 19  1  0
 19 20  1  0
 20 21  1  0
 20 22  1  0
 22 23  1  0
 23 24  2  0
 24 25  1  0
 25 26  2  0
 27 25  1  1
 13  4  1  0
 27 15  1  0
 12  7  1  0
 27 18  1  0
M  END
>  <AAScore>  (1) 
125.3159950526562

>  <RootName>  (1) 
./4ZLY/04_DeltaGEst/trajectory_00/rank_01/lead_0203

$$$$
