confid_6
     RDKit          3D

 26 29  0  0  0  0  0  0  0  0999 V2000
   24.2000   26.2400   35.6900 N   0  0  0  0  0  0  0  0  0  0  0  0
   24.8500   26.2800   34.4800 C   0  0  0  0  0  0  0  0  0  0  0  0
   24.3100   25.7400   33.5400 O   0  0  0  0  0  0  0  0  0  0  0  0
   26.1800   26.9700   34.4700 C   0  0  0  0  0  0  0  0  0  0  0  0
   26.6500   27.6000   35.5500 N   0  0  0  0  0  0  0  0  0  0  0  0
   27.7900   28.2700   35.6200 N   0  0  0  0  0  0  0  0  0  0  0  0
   28.5400   28.3000   34.5100 C   0  0  0  0  0  0  0  0  0  0  0  0
   29.7700   28.9400   34.5600 C   0  0  0  0  0  0  0  0  0  0  0  0
   30.7000   28.8900   33.5000 C   0  0  0  0  0  0  0  0  0  0  0  0
   30.3700   28.1400   32.3700 C   0  0  0  0  0  0  0  0  0  0  0  0
   29.1200   27.5200   32.2800 C   0  0  0  0  0  0  0  0  0  0  0  0
   28.2100   27.6100   33.3300 C   0  0  0  0  0  0  0  0  0  0  0  0
   26.9700   26.9700   33.3100 C   0  0  0  0  0  0  0  0  0  0  0  0
   26.5300   26.2400   32.2200 N   0  0  0  0  0  0  0  0  0  0  0  0
   30.1293   29.7161   35.7224 N   0  0  0  0  0  0  0  0  0  0  0  0
   30.2522   29.0789   37.0282 C   0  0  0  0  0  0  0  0  0  0  0  0
   31.5773   29.4795   37.6307 C   0  0  0  0  0  0  0  0  0  0  0  0
   31.6563   31.0056   37.7903 C   0  0  0  0  0  0  0  0  0  0  0  0
   31.0913   31.8339   36.6952 N   0  0  0  0  0  0  0  0  0  0  0  0
   30.3699   31.1616   35.5786 C   0  0  2  0  0  0  0  0  0  0  0  0
   29.2628   32.0295   34.9462 C   0  0  0  0  0  0  0  0  0  0  0  0
   28.1258   32.3350   35.9362 C   0  0  1  0  0  0  0  0  0  0  0  0
   27.0822   33.2330   35.2607 C   0  0  0  0  0  0  0  0  0  0  0  0
   27.5160   31.1193   36.3338 O   0  0  0  0  0  0  0  0  0  0  0  0
   27.0816   31.1916   37.6748 C   0  0  0  0  0  0  0  0  0  0  0  0
   31.7711   31.5689   35.3985 C   0  0  0  0  0  0  0  0  0  0  0  0
  1  2  1  0
  2  3  2  0
  2  4  1  0
  4  5  2  0
  5  6  1  0
  6  7  2  0
  7  8  1  0
  8  9  2  0
  9 10  1  0
 10 11  2  0
 11 12  1  0
 12 13  2  0
 13 14  1  0
  8 15  1  0
 15 16  1  0
 16 17  1  0
 17 18  1  0
 18 19  1  0
 19 20  1  0
 20 21  1  6
 21 22  1  0
 22 23  1  6
 22 24  1  0
 24 25  1  0
 19 26  1  0
 13  4  1  0
 20 15  1  0
 12  7  1  0
 26 20  1  0
M  END
>  <AAScore>  (1) 
-7.842227491770165

>  <RootName>  (1) 
./4ZLY/04_DeltaGEst/trajectory_04/rank_01/lead_0370

$$$$
