confid_12
     RDKit          3D

 27 30  0  0  0  0  0  0  0  0999 V2000
   24.5500   26.3900   36.2500 N   0  0  0  0  0  0  0  0  0  0  0  0
   25.6000   26.1300   35.4000 C   0  0  0  0  0  0  0  0  0  0  0  0
   25.4300   25.4300   34.4200 O   0  0  0  0  0  0  0  0  0  0  0  0
   26.9800   26.6300   35.7100 C   0  0  0  0  0  0  0  0  0  0  0  0
   27.3200   26.8200   36.9800 N   0  0  0  0  0  0  0  0  0  0  0  0
   28.4700   27.4000   37.3100 N   0  0  0  0  0  0  0  0  0  0  0  0
   29.4000   27.6300   36.3700 C   0  0  0  0  0  0  0  0  0  0  0  0
   30.6600   28.0500   36.8000 C   0  0  0  0  0  0  0  0  0  0  0  0
   31.5700   28.3600   35.7800 C   0  0  0  0  0  0  0  0  0  0  0  0
   31.3700   28.1000   34.4300 C   0  0  0  0  0  0  0  0  0  0  0  0
   30.1200   27.5900   34.0500 C   0  0  0  0  0  0  0  0  0  0  0  0
   29.1500   27.3400   35.0300 C   0  0  0  0  0  0  0  0  0  0  0  0
   27.8800   26.8900   34.6600 C   0  0  0  0  0  0  0  0  0  0  0  0
   27.4800   26.6100   33.3700 N   0  0  0  0  0  0  0  0  0  0  0  0
   23.2036   25.8343   36.0464 C   0  0  0  0  0  0  0  0  0  0  0  0
   22.1642   26.6088   36.8897 C   0  0  0  0  0  0  0  0  0  0  0  0
   22.0328   26.0420   38.3079 C   0  0  0  0  0  0  0  0  0  0  0  0
   21.7185   24.6040   38.2832 N   0  0  0  0  0  0  0  0  0  0  0  0
   21.1956   23.9896   39.4827 C   0  0  0  0  0  0  0  0  0  0  0  0
   21.4011   24.5521   40.5938 O   0  0  0  0  0  0  0  0  0  0  0  0
   20.4177   22.6809   39.4416 C   0  0  0  0  0  0  0  0  0  0  0  0
   19.4692   22.6433   38.3211 N   0  0  0  0  0  0  0  0  0  0  0  0
   21.3233   21.4446   39.4941 C   0  0  0  0  0  0  0  0  0  0  0  0
   20.6700   21.0172   40.8027 C   0  0  0  0  0  0  0  0  0  0  0  0
   19.7679   22.2444   40.7687 C   0  0  0  0  0  0  0  0  0  0  0  0
   21.9305   23.8386   37.0433 C   0  0  0  0  0  0  0  0  0  0  0  0
   23.2089   24.3131   36.3464 C   0  0  0  0  0  0  0  0  0  0  0  0
  1  2  1  0
  2  3  2  0
  2  4  1  0
  4  5  2  0
  5  6  1  0
  6  7  2  0
  7  8  1  0
  8  9  2  0
  9 10  1  0
 10 11  2  0
 11 12  1  0
 12 13  2  0
 13 14  1  0
  1 15  1  0
 15 16  1  0
 16 17  1  0
 17 18  1  0
 18 19  1  0
 19 20  2  0
 19 21  1  0
 21 22  1  0
 21 23  1  0
 23 24  1  0
 24 25  1  0
 18 26  1  0
 26 27  1  0
 13  4  1  0
 27 15  1  0
 12  7  1  0
 25 21  1  0
M  END
>  <AAScore>  (1) 
580.229417702653

>  <RootName>  (1) 
./4ZLY/04_DeltaGEst/trajectory_01/rank_00/lead_0081

$$$$
