confid_8
     RDKit          3D

 29 33  0  0  0  0  0  0  0  0999 V2000
   24.5500   26.3900   36.2500 N   0  0  0  0  0  0  0  0  0  0  0  0
   25.6000   26.1300   35.4000 C   0  0  0  0  0  0  0  0  0  0  0  0
   25.4300   25.4300   34.4200 O   0  0  0  0  0  0  0  0  0  0  0  0
   26.9800   26.6300   35.7100 C   0  0  0  0  0  0  0  0  0  0  0  0
   27.3200   26.8200   36.9800 N   0  0  0  0  0  0  0  0  0  0  0  0
   28.4700   27.4000   37.3100 N   0  0  0  0  0  0  0  0  0  0  0  0
   29.4000   27.6300   36.3700 C   0  0  0  0  0  0  0  0  0  0  0  0
   30.6600   28.0500   36.8000 C   0  0  0  0  0  0  0  0  0  0  0  0
   31.5700   28.3600   35.7800 C   0  0  0  0  0  0  0  0  0  0  0  0
   31.3700   28.1000   34.4300 C   0  0  0  0  0  0  0  0  0  0  0  0
   30.1200   27.5900   34.0500 C   0  0  0  0  0  0  0  0  0  0  0  0
   29.1500   27.3400   35.0300 C   0  0  0  0  0  0  0  0  0  0  0  0
   27.8800   26.8900   34.6600 C   0  0  0  0  0  0  0  0  0  0  0  0
   27.4800   26.6100   33.3700 N   0  0  0  0  0  0  0  0  0  0  0  0
   23.1774   26.2013   35.8768 C   0  0  0  0  0  0  0  0  0  0  0  0
   22.8018   26.6351   34.7003 N   0  0  0  0  0  0  0  0  0  0  0  0
   21.5514   26.7148   33.9978 C   0  0  0  0  0  0  0  0  0  0  0  0
   20.3729   26.8001   34.6012 C   0  0  0  0  0  0  0  0  0  0  0  0
   19.0609   27.4847   34.3338 C   0  0  0  0  0  0  0  0  0  0  0  0
   18.5695   27.3174   35.6231 O   0  0  0  0  0  0  0  0  0  0  0  0
   19.7058   26.5720   35.9169 C   0  0  2  0  0  0  0  0  0  0  0  0
   20.5338   27.1199   37.0808 C   0  0  0  0  0  0  0  0  0  0  0  0
   21.3659   25.9769   37.5933 C   0  0  0  0  0  0  0  0  0  0  0  0
   22.3397   25.4204   36.8275 C   0  0  0  0  0  0  0  0  0  0  0  0
   22.8296   24.0280   37.1662 C   0  0  0  0  0  0  0  0  0  0  0  0
   22.8858   23.8343   38.5752 O   0  0  0  0  0  0  0  0  0  0  0  0
   21.8833   24.3359   39.4002 C   0  0  0  0  0  0  0  0  0  0  0  0
   21.8474   24.0070   40.6150 O   0  0  0  0  0  0  0  0  0  0  0  0
   20.8562   25.2700   38.8357 C   0  0  0  0  0  0  0  0  0  0  0  0
  1  2  1  0
  2  3  2  0
  2  4  1  0
  4  5  2  0
  5  6  1  0
  6  7  2  0
  7  8  1  0
  8  9  2  0
  9 10  1  0
 10 11  2  0
 11 12  1  0
 12 13  2  0
 13 14  1  0
  1 15  1  0
 15 16  2  0
 16 17  1  0
 17 18  2  0
 18 19  1  0
 19 20  1  0
 20 21  1  0
 21 22  1  1
 22 23  1  0
 23 24  2  0
 24 25  1  0
 25 26  1  0
 26 27  1  0
 27 28  2  0
 27 29  1  0
 13  4  1  0
 24 15  1  0
 12  7  1  0
 21 18  1  0
 29 23  1  0
M  END
>  <AAScore>  (1) 
1265.4885947752196

>  <RootName>  (1) 
./4ZLY/04_DeltaGEst/trajectory_01/rank_00/lead_0372

$$$$
