confid_16
     RDKit          3D

 28 31  0  0  0  0  0  0  0  0999 V2000
   24.5700   26.8800   35.5900 N   0  0  0  0  0  0  0  0  0  0  0  0
   25.5000   26.4000   34.6900 C   0  0  0  0  0  0  0  0  0  0  0  0
   25.1700   25.5200   33.9100 O   0  0  0  0  0  0  0  0  0  0  0  0
   26.8400   27.0200   34.7400 C   0  0  0  0  0  0  0  0  0  0  0  0
   27.3800   27.2800   35.9400 N   0  0  0  0  0  0  0  0  0  0  0  0
   28.6200   27.7400   36.0300 N   0  0  0  0  0  0  0  0  0  0  0  0
   29.3800   28.0000   34.9600 C   0  0  0  0  0  0  0  0  0  0  0  0
   30.6700   28.5000   35.1300 C   0  0  0  0  0  0  0  0  0  0  0  0
   31.5400   28.6100   34.0300 C   0  0  0  0  0  0  0  0  0  0  0  0
   31.0900   28.2200   32.7700 C   0  0  0  0  0  0  0  0  0  0  0  0
   29.8000   27.7000   32.6000 C   0  0  0  0  0  0  0  0  0  0  0  0
   28.9600   27.5500   33.7100 C   0  0  0  0  0  0  0  0  0  0  0  0
   27.6600   27.0300   33.5900 C   0  0  0  0  0  0  0  0  0  0  0  0
   27.1600   26.7400   32.3400 N   0  0  0  0  0  0  0  0  0  0  0  0
   33.1515   29.2827   34.2457 S   0  0  0  0  0  6  0  0  0  0  0  0
   33.7786   28.6696   35.4663 O   0  0  0  0  0  0  0  0  0  0  0  0
   34.0063   28.9545   33.0524 O   0  0  0  0  0  0  0  0  0  0  0  0
   33.0462   31.0637   34.4574 C   0  0  1  0  0  0  0  0  0  0  0  0
   34.4137   31.6860   34.6580 C   0  0  0  0  0  0  0  0  0  0  0  0
   34.2741   33.1026   34.2878 N   0  0  0  0  0  0  0  0  0  0  0  0
   33.2964   33.1198   33.1880 C   0  0  2  0  0  0  0  0  0  0  0  0
   32.5064   31.7882   33.2250 C   0  0  2  0  0  0  0  0  0  0  0  0
   30.9916   32.0264   33.3073 C   0  0  0  0  0  0  0  0  0  0  0  0
   34.0642   33.3564   31.8719 C   0  0  0  0  0  0  0  0  0  0  0  0
   35.5004   33.7542   33.7699 C   0  0  0  0  0  0  0  0  0  0  0  0
   36.8038   33.2828   34.4659 C   0  0  0  0  0  0  0  0  0  0  0  0
   35.3702   35.2751   34.0149 C   0  0  0  0  0  0  0  0  0  0  0  0
   35.5270   33.4700   32.2654 C   0  0  0  0  0  0  0  0  0  0  0  0
  1  2  1  0
  2  3  2  0
  2  4  1  0
  4  5  2  0
  5  6  1  0
  6  7  2  0
  7  8  1  0
  8  9  2  0
  9 10  1  0
 10 11  2  0
 11 12  1  0
 12 13  2  0
 13 14  1  0
  9 15  1  0
 15 16  2  0
 15 17  2  0
 18 15  1  6
 18 19  1  0
 19 20  1  0
 20 21  1  0
 21 22  1  0
 22 23  1  1
 21 24  1  6
 20 25  1  0
 25 26  1  0
 25 27  1  0
 25 28  1  0
 13  4  1  0
 22 18  1  0
 28 24  1  0
 12  7  1  0
M  END
>  <AAScore>  (1) 
-6.007636725510293

>  <RootName>  (1) 
./4ZLY/04_DeltaGEst/trajectory_05/rank_01/lead_0407

$$$$
