confid_3
     RDKit          3D

 27 29  0  0  0  0  0  0  0  0999 V2000
   24.5700   26.8800   35.5900 N   0  0  0  0  0  0  0  0  0  0  0  0
   25.5000   26.4000   34.6900 C   0  0  0  0  0  0  0  0  0  0  0  0
   25.1700   25.5200   33.9100 O   0  0  0  0  0  0  0  0  0  0  0  0
   26.8400   27.0200   34.7400 C   0  0  0  0  0  0  0  0  0  0  0  0
   27.3800   27.2800   35.9400 N   0  0  0  0  0  0  0  0  0  0  0  0
   28.6200   27.7400   36.0300 N   0  0  0  0  0  0  0  0  0  0  0  0
   29.3800   28.0000   34.9600 C   0  0  0  0  0  0  0  0  0  0  0  0
   30.6700   28.5000   35.1300 C   0  0  0  0  0  0  0  0  0  0  0  0
   31.5400   28.6100   34.0300 C   0  0  0  0  0  0  0  0  0  0  0  0
   31.0900   28.2200   32.7700 C   0  0  0  0  0  0  0  0  0  0  0  0
   29.8000   27.7000   32.6000 C   0  0  0  0  0  0  0  0  0  0  0  0
   28.9600   27.5500   33.7100 C   0  0  0  0  0  0  0  0  0  0  0  0
   27.6600   27.0300   33.5900 C   0  0  0  0  0  0  0  0  0  0  0  0
   27.1600   26.7400   32.3400 N   0  0  0  0  0  0  0  0  0  0  0  0
   33.1804   29.2162   34.2529 S   0  0  0  0  0  6  0  0  0  0  0  0
   33.7191   29.7075   32.9370 O   0  0  0  0  0  0  0  0  0  0  0  0
   33.1323   30.3787   35.2048 O   0  0  0  0  0  0  0  0  0  0  0  0
   34.2197   27.9717   34.9193 N   0  0  0  0  0  0  0  0  0  0  0  0
   34.1794   26.7518   34.1074 C   0  0  0  0  0  0  0  0  0  0  0  0
   35.2850   26.8371   33.0602 C   0  0  2  0  0  0  0  0  0  0  0  0
   36.2576   27.8703   33.6132 C   0  0  0  0  0  0  0  0  0  0  0  0
   35.6190   28.4078   34.8893 C   0  0  0  0  0  0  0  0  0  0  0  0
   34.7428   27.3085   31.8335 O   0  0  0  0  0  0  0  0  0  0  0  0
   34.7267   26.3594   30.7706 C   0  0  0  0  0  0  0  0  0  0  0  0
   33.9189   25.0878   31.1261 C   0  0  0  0  0  0  0  0  0  0  0  0
   34.0166   27.0520   29.5956 C   0  0  0  0  0  0  0  0  0  0  0  0
   36.1580   25.9972   30.3123 C   0  0  0  0  0  0  0  0  0  0  0  0
  1  2  1  0
  2  3  2  0
  2  4  1  0
  4  5  2  0
  5  6  1  0
  6  7  2  0
  7  8  1  0
  8  9  2  0
  9 10  1  0
 10 11  2  0
 11 12  1  0
 12 13  2  0
 13 14  1  0
  9 15  1  0
 15 16  2  0
 15 17  2  0
 15 18  1  0
 18 19  1  0
 19 20  1  0
 20 21  1  0
 21 22  1  0
 20 23  1  6
 23 24  1  0
 24 25  1  0
 24 26  1  0
 24 27  1  0
 13  4  1  0
 22 18  1  0
 12  7  1  0
M  END
>  <AAScore>  (1) 
972.1741016120212

>  <RootName>  (1) 
./4ZLY/04_DeltaGEst/trajectory_05/rank_01/lead_0134

$$$$
