confid_0
     RDKit          3D

 28 31  0  0  0  0  0  0  0  0999 V2000
   24.5500   26.3900   36.2500 N   0  0  0  0  0  0  0  0  0  0  0  0
   25.6000   26.1300   35.4000 C   0  0  0  0  0  0  0  0  0  0  0  0
   25.4300   25.4300   34.4200 O   0  0  0  0  0  0  0  0  0  0  0  0
   26.9800   26.6300   35.7100 C   0  0  0  0  0  0  0  0  0  0  0  0
   27.3200   26.8200   36.9800 N   0  0  0  0  0  0  0  0  0  0  0  0
   28.4700   27.4000   37.3100 N   0  0  0  0  0  0  0  0  0  0  0  0
   29.4000   27.6300   36.3700 C   0  0  0  0  0  0  0  0  0  0  0  0
   30.6600   28.0500   36.8000 C   0  0  0  0  0  0  0  0  0  0  0  0
   31.5700   28.3600   35.7800 C   0  0  0  0  0  0  0  0  0  0  0  0
   31.3700   28.1000   34.4300 C   0  0  0  0  0  0  0  0  0  0  0  0
   30.1200   27.5900   34.0500 C   0  0  0  0  0  0  0  0  0  0  0  0
   29.1500   27.3400   35.0300 C   0  0  0  0  0  0  0  0  0  0  0  0
   27.8800   26.8900   34.6600 C   0  0  0  0  0  0  0  0  0  0  0  0
   27.4800   26.6100   33.3700 N   0  0  0  0  0  0  0  0  0  0  0  0
   30.9495   28.3278   38.1754 N   0  0  0  0  0  0  0  0  0  0  0  0
   30.8449   29.7085   38.6636 C   0  0  0  0  0  0  0  0  0  0  0  0
   31.2123   29.8022   40.1470 C   0  0  0  0  0  0  0  0  0  0  0  0
   30.5670   28.7140   40.8916 N   0  0  0  0  0  0  0  0  0  0  0  0
   30.6208   27.3307   40.3952 C   0  0  0  0  0  0  0  0  0  0  0  0
   31.3727   27.2405   39.0629 C   0  0  0  0  0  0  0  0  0  0  0  0
   29.7623   29.0136   42.0433 C   0  0  0  0  0  0  0  0  0  0  0  0
   28.5898   29.7674   41.8898 C   0  0  0  0  0  0  0  0  0  0  0  0
   27.7757   30.0382   42.9911 C   0  0  0  0  0  0  0  0  0  0  0  0
   28.1281   29.5615   44.2547 C   0  0  0  0  0  0  0  0  0  0  0  0
   29.2956   28.8122   44.4216 C   0  0  0  0  0  0  0  0  0  0  0  0
   30.1276   28.5346   43.3171 C   0  0  0  0  0  0  0  0  0  0  0  0
   31.3235   27.8107   43.4500 O   0  0  0  0  0  0  0  0  0  0  0  0
   31.7934   27.2439   44.6687 C   0  0  0  0  0  0  0  0  0  0  0  0
  1  2  1  0
  2  3  2  0
  2  4  1  0
  4  5  2  0
  5  6  1  0
  6  7  2  0
  7  8  1  0
  8  9  2  0
  9 10  1  0
 10 11  2  0
 11 12  1  0
 12 13  2  0
 13 14  1  0
  8 15  1  0
 15 16  1  0
 16 17  1  0
 17 18  1  0
 18 19  1  0
 19 20  1  0
 18 21  1  0
 21 22  2  0
 22 23  1  0
 23 24  2  0
 24 25  1  0
 25 26  2  0
 26 27  1  0
 27 28  1  0
 13  4  1  0
 20 15  1  0
 26 21  1  0
 12  7  1  0
M  END
>  <AAScore>  (1) 
49.23153535477749

>  <RootName>  (1) 
./4ZLY/04_DeltaGEst/trajectory_01/rank_01/lead_0466

$$$$
