confid_12
     RDKit          3D

 33 36  0  0  0  0  0  0  0  0999 V2000
   25.3300   26.2600   34.7600 N   0  0  0  0  0  0  0  0  0  0  0  0
   26.1200   25.9200   33.6900 C   0  0  0  0  0  0  0  0  0  0  0  0
   25.6300   25.1100   32.9400 O   0  0  0  0  0  0  0  0  0  0  0  0
   27.5200   26.3800   33.4600 C   0  0  0  0  0  0  0  0  0  0  0  0
   28.1600   26.6300   34.6100 N   0  0  0  0  0  0  0  0  0  0  0  0
   29.4800   26.8500   34.5700 N   0  0  0  0  0  0  0  0  0  0  0  0
   30.1900   26.7800   33.4400 C   0  0  0  0  0  0  0  0  0  0  0  0
   31.5600   27.0500   33.5000 C   0  0  0  0  0  0  0  0  0  0  0  0
   32.2700   27.2400   32.3100 C   0  0  0  0  0  0  0  0  0  0  0  0
   31.6100   27.2500   31.0800 C   0  0  0  0  0  0  0  0  0  0  0  0
   30.2700   26.8700   31.0600 C   0  0  0  0  0  0  0  0  0  0  0  0
   29.5100   26.6900   32.2300 C   0  0  0  0  0  0  0  0  0  0  0  0
   28.1400   26.4100   32.2000 C   0  0  0  0  0  0  0  0  0  0  0  0
   27.4300   26.1300   31.0500 N   0  0  0  0  0  0  0  0  0  0  0  0
   23.9001   26.2067   34.7017 C   0  0  0  0  0  0  0  0  0  0  0  0
   23.1985   27.2104   34.2895 N   0  0  0  0  0  0  0  0  0  0  0  0
   21.8347   26.8513   34.4487 C   0  0  0  0  0  0  0  0  0  0  0  0
   21.7133   25.6525   35.0006 C   0  0  0  0  0  0  0  0  0  0  0  0
   20.4313   24.8909   35.1170 C   0  0  0  0  0  0  0  0  0  0  0  0
   20.3979   23.8822   34.0547 N   0  0  0  0  0  0  0  0  0  0  0  0
   21.0031   22.5586   34.2732 C   0  0  0  0  0  0  0  0  0  0  0  0
   22.3822   22.6238   34.9647 C   0  0  0  0  0  0  0  0  0  0  0  0
   23.2932   23.7609   34.4583 C   0  0  0  0  0  0  0  0  0  0  0  0
   23.0715   25.0746   35.2362 C   0  0  1  0  0  0  0  0  0  0  0  0
   20.0128   24.2823   32.7276 C   0  0  0  0  0  0  0  0  0  0  0  0
   20.7559   23.9994   31.7502 O   0  0  0  0  0  0  0  0  0  0  0  0
   18.8009   25.0214   32.5067 N   0  0  0  0  0  0  0  0  0  0  0  0
   17.5523   24.5856   33.1478 C   0  0  0  0  0  0  0  0  0  0  0  0
   17.0073   23.3295   32.4615 C   0  0  0  0  0  0  0  0  0  0  0  0
   16.7869   23.5915   31.0225 N   0  0  0  0  0  0  0  0  0  0  0  0
   17.0952   22.4051   30.2099 C   0  0  0  0  0  0  0  0  0  0  0  0
   15.4077   24.0339   30.7621 C   0  0  0  0  0  0  0  0  0  0  0  0
   18.7948   26.1030   31.5168 C   0  0  0  0  0  0  0  0  0  0  0  0
  1  2  1  0
  2  3  2  0
  2  4  1  0
  4  5  2  0
  5  6  1  0
  6  7  2  0
  7  8  1  0
  8  9  2  0
  9 10  1  0
 10 11  2  0
 11 12  1  0
 12 13  2  0
 13 14  1  0
  1 15  1  0
 15 16  2  0
 16 17  1  0
 17 18  2  0
 18 19  1  0
 19 20  1  0
 20 21  1  0
 21 22  1  0
 22 23  1  0
 24 23  1  6
 20 25  1  0
 25 26  2  0
 25 27  1  0
 27 28  1  0
 28 29  1  0
 29 30  1  0
 30 31  1  0
 30 32  1  0
 27 33  1  0
 13  4  1  0
 24 15  1  0
 12  7  1  0
 24 18  1  0
M  END
>  <AAScore>  (1) 
2073.388290873389

>  <RootName>  (1) 
./4ZLY/04_DeltaGEst/trajectory_03/rank_00/lead_0292

$$$$
