confid_5
     RDKit          3D

 27 30  0  0  0  0  0  0  0  0999 V2000
   24.5700   26.8800   35.5900 N   0  0  0  0  0  0  0  0  0  0  0  0
   25.5000   26.4000   34.6900 C   0  0  0  0  0  0  0  0  0  0  0  0
   25.1700   25.5200   33.9100 O   0  0  0  0  0  0  0  0  0  0  0  0
   26.8400   27.0200   34.7400 C   0  0  0  0  0  0  0  0  0  0  0  0
   27.3800   27.2800   35.9400 N   0  0  0  0  0  0  0  0  0  0  0  0
   28.6200   27.7400   36.0300 N   0  0  0  0  0  0  0  0  0  0  0  0
   29.3800   28.0000   34.9600 C   0  0  0  0  0  0  0  0  0  0  0  0
   30.6700   28.5000   35.1300 C   0  0  0  0  0  0  0  0  0  0  0  0
   31.5400   28.6100   34.0300 C   0  0  0  0  0  0  0  0  0  0  0  0
   31.0900   28.2200   32.7700 C   0  0  0  0  0  0  0  0  0  0  0  0
   29.8000   27.7000   32.6000 C   0  0  0  0  0  0  0  0  0  0  0  0
   28.9600   27.5500   33.7100 C   0  0  0  0  0  0  0  0  0  0  0  0
   27.6600   27.0300   33.5900 C   0  0  0  0  0  0  0  0  0  0  0  0
   27.1600   26.7400   32.3400 N   0  0  0  0  0  0  0  0  0  0  0  0
   23.1904   26.4636   35.6198 C   0  0  0  0  0  0  0  0  0  0  0  0
   22.5690   25.9178   34.5521 N   0  0  0  0  0  0  0  0  0  0  0  0
   21.2939   25.7722   34.9490 C   0  0  0  0  0  0  0  0  0  0  0  0
   21.1537   26.2486   36.2343 C   0  0  0  0  0  0  0  0  0  0  0  0
   19.8724   26.1787   37.0081 C   0  0  0  0  0  0  0  0  0  0  0  0
   19.7899   24.8674   37.6938 N   0  0  0  0  0  0  0  0  0  0  0  0
   20.2247   24.9490   39.1057 C   0  0  0  0  0  0  0  0  0  0  0  0
   21.7212   25.2889   39.2436 C   0  0  0  0  0  0  0  0  0  0  0  0
   21.9965   26.8065   39.2062 C   0  0  0  0  0  0  0  0  0  0  0  0
   22.7497   27.2948   37.9550 C   0  0  0  0  0  0  0  0  0  0  0  0
   22.3663   26.6537   36.6827 N   0  0  0  0  0  0  0  0  0  0  0  0
   18.4254   24.2982   37.6065 C   0  0  0  0  0  0  0  0  0  0  0  0
   18.2245   23.5940   36.2659 C   0  0  0  0  0  0  0  0  0  0  0  0
  1  2  1  0
  2  3  2  0
  2  4  1  0
  4  5  2  0
  5  6  1  0
  6  7  2  0
  7  8  1  0
  8  9  2  0
  9 10  1  0
 10 11  2  0
 11 12  1  0
 12 13  2  0
 13 14  1  0
  1 15  1  0
 15 16  2  0
 16 17  1  0
 17 18  2  0
 18 19  1  0
 19 20  1  0
 20 21  1  0
 21 22  1  0
 22 23  1  0
 23 24  1  0
 24 25  1  0
 20 26  1  0
 26 27  1  0
 13  4  1  0
 25 15  1  0
 12  7  1  0
 25 18  1  0
M  END
>  <AAScore>  (1) 
367.61242080735

>  <RootName>  (1) 
./4ZLY/04_DeltaGEst/trajectory_05/rank_00/lead_0260

$$$$
