confid_0
     RDKit          3D

 29 33  0  0  0  0  0  0  0  0999 V2000
   24.2000   26.2400   35.6900 N   0  0  0  0  0  0  0  0  0  0  0  0
   24.8500   26.2800   34.4800 C   0  0  0  0  0  0  0  0  0  0  0  0
   24.3100   25.7400   33.5400 O   0  0  0  0  0  0  0  0  0  0  0  0
   26.1800   26.9700   34.4700 C   0  0  0  0  0  0  0  0  0  0  0  0
   26.6500   27.6000   35.5500 N   0  0  0  0  0  0  0  0  0  0  0  0
   27.7900   28.2700   35.6200 N   0  0  0  0  0  0  0  0  0  0  0  0
   28.5400   28.3000   34.5100 C   0  0  0  0  0  0  0  0  0  0  0  0
   29.7700   28.9400   34.5600 C   0  0  0  0  0  0  0  0  0  0  0  0
   30.7000   28.8900   33.5000 C   0  0  0  0  0  0  0  0  0  0  0  0
   30.3700   28.1400   32.3700 C   0  0  0  0  0  0  0  0  0  0  0  0
   29.1200   27.5200   32.2800 C   0  0  0  0  0  0  0  0  0  0  0  0
   28.2100   27.6100   33.3300 C   0  0  0  0  0  0  0  0  0  0  0  0
   26.9700   26.9700   33.3100 C   0  0  0  0  0  0  0  0  0  0  0  0
   26.5300   26.2400   32.2200 N   0  0  0  0  0  0  0  0  0  0  0  0
   30.1353   29.6959   35.7313 N   0  0  0  0  0  0  0  0  0  0  0  0
   31.3560   29.3576   36.4876 C   0  0  0  0  0  0  0  0  0  0  0  0
   32.3078   30.5664   36.5496 C   0  0  0  0  0  0  0  0  0  0  0  0
   31.5279   31.8080   36.8564 C   0  0  0  0  0  0  0  0  0  0  0  0
   31.9577   33.0677   37.2301 C   0  0  0  0  0  0  0  0  0  0  0  0
   30.9045   33.9149   37.2407 N   0  0  0  0  0  0  0  0  0  0  0  0
   29.8264   33.2210   36.8990 N   0  0  0  0  0  0  0  0  0  0  0  0
   28.5012   33.8126   36.7350 C   0  0  0  0  0  0  0  0  0  0  0  0
   28.3376   34.3510   35.3134 C   0  0  0  0  0  0  0  0  0  0  0  0
   26.9240   34.9116   35.1157 C   0  0  0  0  0  0  0  0  0  0  0  0
   26.4375   34.9406   33.6749 C   0  0  0  0  0  0  0  0  0  0  0  0
   25.8824   33.9078   34.6443 C   0  0  0  0  0  0  0  0  0  0  0  0
   30.1836   31.9486   36.6321 C   0  0  0  0  0  0  0  0  0  0  0  0
   29.3008   30.8266   36.1754 C   0  0  0  0  0  0  0  0  0  0  0  0
   33.3694   33.4856   37.4755 C   0  0  0  0  0  0  0  0  0  0  0  0
  1  2  1  0
  2  3  2  0
  2  4  1  0
  4  5  2  0
  5  6  1  0
  6  7  2  0
  7  8  1  0
  8  9  2  0
  9 10  1  0
 10 11  2  0
 11 12  1  0
 12 13  2  0
 13 14  1  0
  8 15  1  0
 15 16  1  0
 16 17  1  0
 17 18  1  0
 18 19  1  0
 19 20  2  0
 20 21  1  0
 21 22  1  0
 22 23  1  0
 23 24  1  0
 24 25  1  0
 25 26  1  0
 21 27  1  0
 27 28  1  0
 19 29  1  0
 13  4  1  0
 28 15  1  0
 12  7  1  0
 27 18  2  0
 26 24  1  0
M  END
>  <AAScore>  (1) 
94.88707051119916

>  <RootName>  (1) 
./4ZLY/04_DeltaGEst/trajectory_04/rank_01/lead_0483

$$$$
