confid_1
     RDKit          3D

 29 32  0  0  0  0  0  0  0  0999 V2000
   25.3300   26.2600   34.7600 N   0  0  0  0  0  0  0  0  0  0  0  0
   26.1200   25.9200   33.6900 C   0  0  0  0  0  0  0  0  0  0  0  0
   25.6300   25.1100   32.9400 O   0  0  0  0  0  0  0  0  0  0  0  0
   27.5200   26.3800   33.4600 C   0  0  0  0  0  0  0  0  0  0  0  0
   28.1600   26.6300   34.6100 N   0  0  0  0  0  0  0  0  0  0  0  0
   29.4800   26.8500   34.5700 N   0  0  0  0  0  0  0  0  0  0  0  0
   30.1900   26.7800   33.4400 C   0  0  0  0  0  0  0  0  0  0  0  0
   31.5600   27.0500   33.5000 C   0  0  0  0  0  0  0  0  0  0  0  0
   32.2700   27.2400   32.3100 C   0  0  0  0  0  0  0  0  0  0  0  0
   31.6100   27.2500   31.0800 C   0  0  0  0  0  0  0  0  0  0  0  0
   30.2700   26.8700   31.0600 C   0  0  0  0  0  0  0  0  0  0  0  0
   29.5100   26.6900   32.2300 C   0  0  0  0  0  0  0  0  0  0  0  0
   28.1400   26.4100   32.2000 C   0  0  0  0  0  0  0  0  0  0  0  0
   27.4300   26.1300   31.0500 N   0  0  0  0  0  0  0  0  0  0  0  0
   27.5684   24.8095   30.4192 C   0  0  0  0  0  0  0  0  0  0  0  0
   26.5718   24.6339   29.2692 C   0  0  0  0  0  0  0  0  0  0  0  0
   26.5916   25.8140   28.3913 N   0  0  0  0  0  0  0  0  0  0  0  0
   26.5783   25.6945   26.9527 C   0  0  0  0  0  0  0  0  0  0  0  0
   27.3367   26.4498   26.2830 O   0  0  0  0  0  0  0  0  0  0  0  0
   25.6953   24.6849   26.2185 C   0  0  0  0  0  0  0  0  0  0  0  0
   24.3495   24.4575   26.9872 C   0  0  0  0  0  0  0  0  0  0  0  0
   23.1257   24.2032   26.0838 C   0  0  0  0  0  0  0  0  0  0  0  0
   23.5067   23.4338   24.8205 C   0  0  0  0  0  0  0  0  0  0  0  0
   24.5098   24.2225   23.9608 C   0  0  0  0  0  0  0  0  0  0  0  0
   25.3988   25.1874   24.7771 C   0  0  0  0  0  0  0  0  0  0  0  0
   26.4511   23.4182   26.1229 C   0  0  0  0  0  0  0  0  0  0  0  0
   27.0422   22.4260   26.0469 N   0  0  0  0  0  0  0  0  0  0  0  0
   26.6369   27.1654   28.9713 C   0  0  0  0  0  0  0  0  0  0  0  0
   26.5137   27.1330   30.4973 C   0  0  0  0  0  0  0  0  0  0  0  0
  1  2  1  0
  2  3  2  0
  2  4  1  0
  4  5  2  0
  5  6  1  0
  6  7  2  0
  7  8  1  0
  8  9  2  0
  9 10  1  0
 10 11  2  0
 11 12  1  0
 12 13  2  0
 13 14  1  0
 14 15  1  0
 15 16  1  0
 16 17  1  0
 17 18  1  0
 18 19  2  0
 18 20  1  0
 20 21  1  0
 21 22  1  0
 22 23  1  0
 23 24  1  0
 24 25  1  0
 20 26  1  0
 26 27  3  0
 17 28  1  0
 28 29  1  0
 13  4  1  0
 29 14  1  0
 12  7  1  0
 25 20  1  0
M  END
>  <AAScore>  (1) 
30.666695580187724

>  <RootName>  (1) 
./4ZLY/04_DeltaGEst/trajectory_03/rank_01/lead_0230

$$$$
