confid_18
     RDKit          3D

 28 31  0  0  0  0  0  0  0  0999 V2000
   24.6900   26.1200   35.5300 N   0  0  0  0  0  0  0  0  0  0  0  0
   25.6600   25.6700   34.6600 C   0  0  0  0  0  0  0  0  0  0  0  0
   25.2400   25.0100   33.7200 O   0  0  0  0  0  0  0  0  0  0  0  0
   27.0300   26.2200   34.8800 C   0  0  0  0  0  0  0  0  0  0  0  0
   27.3500   26.7300   36.0700 N   0  0  0  0  0  0  0  0  0  0  0  0
   28.5700   27.1800   36.3300 N   0  0  0  0  0  0  0  0  0  0  0  0
   29.5300   27.1100   35.3900 C   0  0  0  0  0  0  0  0  0  0  0  0
   30.8300   27.5700   35.6500 C   0  0  0  0  0  0  0  0  0  0  0  0
   31.8500   27.5400   34.6900 C   0  0  0  0  0  0  0  0  0  0  0  0
   31.5100   27.1200   33.4000 C   0  0  0  0  0  0  0  0  0  0  0  0
   30.2200   26.6300   33.1100 C   0  0  0  0  0  0  0  0  0  0  0  0
   29.2400   26.6600   34.1000 C   0  0  0  0  0  0  0  0  0  0  0  0
   27.9300   26.2600   33.8100 C   0  0  0  0  0  0  0  0  0  0  0  0
   27.5200   25.7100   32.6100 N   0  0  0  0  0  0  0  0  0  0  0  0
   31.1635   28.0702   36.9530 N   0  0  0  0  0  0  0  0  0  0  0  0
   30.5081   28.2927   38.2586 C   0  0  0  0  0  0  0  0  0  0  0  0
   31.7173   28.8773   38.9539 C   0  0  0  0  0  0  0  0  0  0  0  0
   32.2608   27.9458   40.0711 C   0  0  0  0  0  0  0  0  0  0  0  0
   31.3664   27.9240   41.2379 C   0  0  0  0  0  0  0  0  0  0  0  0
   30.6620   27.9074   42.1559 N   0  0  0  0  0  0  0  0  0  0  0  0
   32.3671   28.6116   37.6175 C   0  0  0  0  0  0  0  0  0  0  0  0
   31.6184   30.3840   39.2775 C   0  0  0  0  0  0  0  0  0  0  0  0
   32.1689   30.9272   40.4613 C   0  0  0  0  0  0  0  0  0  0  0  0
   32.0881   32.2972   40.7285 C   0  0  0  0  0  0  0  0  0  0  0  0
   31.4746   33.1564   39.8178 C   0  0  0  0  0  0  0  0  0  0  0  0
   30.9480   32.6489   38.6311 C   0  0  0  0  0  0  0  0  0  0  0  0
   31.0241   31.2808   38.3574 C   0  0  0  0  0  0  0  0  0  0  0  0
   31.4015   34.4846   40.0801 F   0  0  0  0  0  0  0  0  0  0  0  0
  1  2  1  0
  2  3  2  0
  2  4  1  0
  4  5  2  0
  5  6  1  0
  6  7  2  0
  7  8  1  0
  8  9  2  0
  9 10  1  0
 10 11  2  0
 11 12  1  0
 12 13  2  0
 13 14  1  0
  8 15  1  0
 15 16  1  0
 16 17  1  0
 17 18  1  0
 18 19  1  0
 19 20  3  0
 17 21  1  0
 17 22  1  0
 22 23  2  0
 23 24  1  0
 24 25  2  0
 25 26  1  0
 26 27  2  0
 25 28  1  0
 13  4  1  0
 21 15  1  0
 27 22  1  0
 12  7  1  0
M  END
>  <AAScore>  (1) 
3.3183510093890782

>  <RootName>  (1) 
./4ZLY/04_DeltaGEst/trajectory_02/rank_01/lead_0095

$$$$
