confid_6
     RDKit          3D

 29 32  0  0  0  0  0  0  0  0999 V2000
   24.5700   26.8800   35.5900 N   0  0  0  0  0  0  0  0  0  0  0  0
   25.5000   26.4000   34.6900 C   0  0  0  0  0  0  0  0  0  0  0  0
   25.1700   25.5200   33.9100 O   0  0  0  0  0  0  0  0  0  0  0  0
   26.8400   27.0200   34.7400 C   0  0  0  0  0  0  0  0  0  0  0  0
   27.3800   27.2800   35.9400 N   0  0  0  0  0  0  0  0  0  0  0  0
   28.6200   27.7400   36.0300 N   0  0  0  0  0  0  0  0  0  0  0  0
   29.3800   28.0000   34.9600 C   0  0  0  0  0  0  0  0  0  0  0  0
   30.6700   28.5000   35.1300 C   0  0  0  0  0  0  0  0  0  0  0  0
   31.5400   28.6100   34.0300 C   0  0  0  0  0  0  0  0  0  0  0  0
   31.0900   28.2200   32.7700 C   0  0  0  0  0  0  0  0  0  0  0  0
   29.8000   27.7000   32.6000 C   0  0  0  0  0  0  0  0  0  0  0  0
   28.9600   27.5500   33.7100 C   0  0  0  0  0  0  0  0  0  0  0  0
   27.6600   27.0300   33.5900 C   0  0  0  0  0  0  0  0  0  0  0  0
   27.1600   26.7400   32.3400 N   0  0  0  0  0  0  0  0  0  0  0  0
   33.2208   29.0829   34.2837 S   0  0  0  0  0  6  0  0  0  0  0  0
   33.9394   29.1596   32.9652 O   0  0  0  0  0  0  0  0  0  0  0  0
   33.2595   30.4378   34.9310 O   0  0  0  0  0  0  0  0  0  0  0  0
   34.0570   27.8896   35.3335 C   0  0  0  0  0  0  0  0  0  0  0  0
   33.6058   26.4422   35.0475 C   0  0  0  0  0  0  0  0  0  0  0  0
   34.0013   25.9743   33.6280 C   0  0  0  0  0  0  0  0  0  0  0  0
   33.9849   24.4344   33.4789 C   0  0  0  0  0  0  0  0  0  0  0  0
   33.1366   23.7733   34.4918 N   0  0  0  0  0  0  0  0  0  0  0  0
   33.6151   24.0331   35.8734 C   0  0  0  0  0  0  0  0  0  0  0  0
   34.1641   25.4640   36.0887 C   0  0  0  0  0  0  0  0  0  0  0  0
   31.6888   24.0282   34.2884 C   0  0  0  0  0  0  0  0  0  0  0  0
   31.0137   22.7556   33.7612 C   0  0  0  0  0  0  0  0  0  0  0  0
   29.4982   22.8886   33.6102 C   0  0  0  0  0  0  0  0  0  0  0  0
   29.3010   21.8170   34.6743 C   0  0  0  0  0  0  0  0  0  0  0  0
   30.8102   21.6789   34.8262 C   0  0  0  0  0  0  0  0  0  0  0  0
  1  2  1  0
  2  3  2  0
  2  4  1  0
  4  5  2  0
  5  6  1  0
  6  7  2  0
  7  8  1  0
  8  9  2  0
  9 10  1  0
 10 11  2  0
 11 12  1  0
 12 13  2  0
 13 14  1  0
  9 15  1  0
 15 16  2  0
 15 17  2  0
 15 18  1  0
 18 19  1  0
 19 20  1  0
 20 21  1  0
 21 22  1  0
 22 23  1  0
 23 24  1  0
 22 25  1  0
 25 26  1  0
 26 27  1  0
 27 28  1  0
 28 29  1  0
 13  4  1  0
 24 19  1  0
 29 26  1  0
 12  7  1  0
M  END
>  <AAScore>  (1) 
399.96913806231726

>  <RootName>  (1) 
./4ZLY/04_DeltaGEst/trajectory_05/rank_01/lead_0438

$$$$
