confid_6
     RDKit          3D

 28 32  0  0  0  0  0  0  0  0999 V2000
   25.3300   26.2600   34.7600 N   0  0  0  0  0  0  0  0  0  0  0  0
   26.1200   25.9200   33.6900 C   0  0  0  0  0  0  0  0  0  0  0  0
   25.6300   25.1100   32.9400 O   0  0  0  0  0  0  0  0  0  0  0  0
   27.5200   26.3800   33.4600 C   0  0  0  0  0  0  0  0  0  0  0  0
   28.1600   26.6300   34.6100 N   0  0  0  0  0  0  0  0  0  0  0  0
   29.4800   26.8500   34.5700 N   0  0  0  0  0  0  0  0  0  0  0  0
   30.1900   26.7800   33.4400 C   0  0  0  0  0  0  0  0  0  0  0  0
   31.5600   27.0500   33.5000 C   0  0  0  0  0  0  0  0  0  0  0  0
   32.2700   27.2400   32.3100 C   0  0  0  0  0  0  0  0  0  0  0  0
   31.6100   27.2500   31.0800 C   0  0  0  0  0  0  0  0  0  0  0  0
   30.2700   26.8700   31.0600 C   0  0  0  0  0  0  0  0  0  0  0  0
   29.5100   26.6900   32.2300 C   0  0  0  0  0  0  0  0  0  0  0  0
   28.1400   26.4100   32.2000 C   0  0  0  0  0  0  0  0  0  0  0  0
   27.4300   26.1300   31.0500 N   0  0  0  0  0  0  0  0  0  0  0  0
   27.5233   24.8744   30.3052 C   0  0  0  0  0  0  0  0  0  0  0  0
   26.4323   24.9700   29.1819 C   0  0  2  0  0  0  0  0  0  0  0  0
   25.4406   23.8097   29.2364 C   0  0  0  0  0  0  0  0  0  0  0  0
   25.9948   22.7329   28.4151 N   0  0  0  0  0  0  0  0  0  0  0  0
   26.9768   23.3445   27.5092 C   0  0  0  0  0  0  0  0  0  0  0  0
   27.0246   24.8414   27.7872 C   0  0  0  0  0  0  0  0  0  0  0  0
   25.7956   26.3095   29.4343 C   0  0  0  0  0  0  0  0  0  0  0  0
   24.7467   26.9268   28.7434 C   0  0  0  0  0  0  0  0  0  0  0  0
   24.3159   28.1951   29.1633 C   0  0  0  0  0  0  0  0  0  0  0  0
   24.9354   28.8292   30.2597 C   0  0  0  0  0  0  0  0  0  0  0  0
   25.9889   28.1918   30.9379 C   0  0  0  0  0  0  0  0  0  0  0  0
   26.3941   26.9266   30.5007 C   0  0  0  0  0  0  0  0  0  0  0  0
   24.4903   30.1300   30.6848 C   0  0  0  0  0  0  0  0  0  0  0  0
   24.1324   31.1760   31.0268 N   0  0  0  0  0  0  0  0  0  0  0  0
  1  2  1  0
  2  3  2  0
  2  4  1  0
  4  5  2  0
  5  6  1  0
  6  7  2  0
  7  8  1  0
  8  9  2  0
  9 10  1  0
 10 11  2  0
 11 12  1  0
 12 13  2  0
 13 14  1  0
 14 15  1  0
 16 15  1  1
 16 17  1  0
 17 18  1  0
 18 19  1  0
 19 20  1  0
 16 21  1  0
 21 22  2  0
 22 23  1  0
 23 24  2  0
 24 25  1  0
 25 26  2  0
 24 27  1  0
 27 28  3  0
 13  4  1  0
 26 14  1  0
 12  7  1  0
 20 16  1  0
 26 21  1  0
M  END
>  <AAScore>  (1) 
220.36938085477345

>  <RootName>  (1) 
./4ZLY/04_DeltaGEst/trajectory_03/rank_01/lead_0100

$$$$
