confid_18
     RDKit          3D

 28 31  0  0  0  0  0  0  0  0999 V2000
   25.3300   26.2600   34.7600 N   0  0  0  0  0  0  0  0  0  0  0  0
   26.1200   25.9200   33.6900 C   0  0  0  0  0  0  0  0  0  0  0  0
   25.6300   25.1100   32.9400 O   0  0  0  0  0  0  0  0  0  0  0  0
   27.5200   26.3800   33.4600 C   0  0  0  0  0  0  0  0  0  0  0  0
   28.1600   26.6300   34.6100 N   0  0  0  0  0  0  0  0  0  0  0  0
   29.4800   26.8500   34.5700 N   0  0  0  0  0  0  0  0  0  0  0  0
   30.1900   26.7800   33.4400 C   0  0  0  0  0  0  0  0  0  0  0  0
   31.5600   27.0500   33.5000 C   0  0  0  0  0  0  0  0  0  0  0  0
   32.2700   27.2400   32.3100 C   0  0  0  0  0  0  0  0  0  0  0  0
   31.6100   27.2500   31.0800 C   0  0  0  0  0  0  0  0  0  0  0  0
   30.2700   26.8700   31.0600 C   0  0  0  0  0  0  0  0  0  0  0  0
   29.5100   26.6900   32.2300 C   0  0  0  0  0  0  0  0  0  0  0  0
   28.1400   26.4100   32.2000 C   0  0  0  0  0  0  0  0  0  0  0  0
   27.4300   26.1300   31.0500 N   0  0  0  0  0  0  0  0  0  0  0  0
   26.4268   27.0736   30.5502 C   0  0  0  0  0  0  0  0  0  0  0  0
   26.5080   27.1519   29.0251 C   0  0  0  0  0  0  0  0  0  0  0  0
   26.4177   25.7991   28.4381 N   0  0  0  0  0  0  0  0  0  0  0  0
   26.3854   25.8897   26.9635 C   0  0  0  0  0  0  0  0  0  0  0  0
   25.8937   24.5977   26.3642 C   0  0  0  0  0  0  0  0  0  0  0  0
   26.7609   23.7754   25.6261 C   0  0  0  0  0  0  0  0  0  0  0  0
   26.3103   22.5647   25.0851 C   0  0  0  0  0  0  0  0  0  0  0  0
   27.2184   21.7819   24.3568 O   0  0  0  0  0  0  0  0  0  0  0  0
   26.8993   20.5318   23.7544 C   0  0  0  0  0  0  0  0  0  0  0  0
   24.9725   22.1754   25.2893 C   0  0  0  0  0  0  0  0  0  0  0  0
   24.1081   22.9893   26.0260 C   0  0  0  0  0  0  0  0  0  0  0  0
   24.5651   24.1946   26.5633 C   0  0  0  0  0  0  0  0  0  0  0  0
   27.5636   24.9767   28.8857 C   0  0  0  0  0  0  0  0  0  0  0  0
   27.5468   24.8169   30.4083 C   0  0  0  0  0  0  0  0  0  0  0  0
  1  2  1  0
  2  3  2  0
  2  4  1  0
  4  5  2  0
  5  6  1  0
  6  7  2  0
  7  8  1  0
  8  9  2  0
  9 10  1  0
 10 11  2  0
 11 12  1  0
 12 13  2  0
 13 14  1  0
 14 15  1  0
 15 16  1  0
 16 17  1  0
 17 18  1  0
 18 19  1  0
 19 20  2  0
 20 21  1  0
 21 22  1  0
 22 23  1  0
 21 24  2  0
 24 25  1  0
 25 26  2  0
 17 27  1  0
 27 28  1  0
 13  4  1  0
 28 14  1  0
 12  7  1  0
 26 19  1  0
M  END
>  <AAScore>  (1) 
16.39750319029675

>  <RootName>  (1) 
./4ZLY/04_DeltaGEst/trajectory_03/rank_01/lead_0387

$$$$
