confid_0
     RDKit          3D

 29 32  0  0  0  0  0  0  0  0999 V2000
   24.6900   26.1200   35.5300 N   0  0  0  0  0  0  0  0  0  0  0  0
   25.6600   25.6700   34.6600 C   0  0  0  0  0  0  0  0  0  0  0  0
   25.2400   25.0100   33.7200 O   0  0  0  0  0  0  0  0  0  0  0  0
   27.0300   26.2200   34.8800 C   0  0  0  0  0  0  0  0  0  0  0  0
   27.3500   26.7300   36.0700 N   0  0  0  0  0  0  0  0  0  0  0  0
   28.5700   27.1800   36.3300 N   0  0  0  0  0  0  0  0  0  0  0  0
   29.5300   27.1100   35.3900 C   0  0  0  0  0  0  0  0  0  0  0  0
   30.8300   27.5700   35.6500 C   0  0  0  0  0  0  0  0  0  0  0  0
   31.8500   27.5400   34.6900 C   0  0  0  0  0  0  0  0  0  0  0  0
   31.5100   27.1200   33.4000 C   0  0  0  0  0  0  0  0  0  0  0  0
   30.2200   26.6300   33.1100 C   0  0  0  0  0  0  0  0  0  0  0  0
   29.2400   26.6600   34.1000 C   0  0  0  0  0  0  0  0  0  0  0  0
   27.9300   26.2600   33.8100 C   0  0  0  0  0  0  0  0  0  0  0  0
   27.5200   25.7100   32.6100 N   0  0  0  0  0  0  0  0  0  0  0  0
   31.1461   28.0697   36.9615 N   0  0  0  0  0  0  0  0  0  0  0  0
   31.3372   27.0948   38.0434 C   0  0  0  0  0  0  0  0  0  0  0  0
   30.9914   27.6713   39.4206 C   0  0  0  0  0  0  0  0  0  0  0  0
   29.6304   28.3863   39.4357 C   0  0  0  0  0  0  0  0  0  0  0  0
   29.5645   29.5700   38.5529 N   0  0  0  0  0  0  0  0  0  0  0  0
   28.2795   30.2175   38.4090 C   0  0  0  0  0  0  0  0  0  0  0  0
   27.4340   30.1162   39.3397 O   0  0  0  0  0  0  0  0  0  0  0  0
   27.9121   31.0002   37.2012 C   0  0  0  0  0  0  0  0  0  0  0  0
   26.9915   32.0602   37.3026 C   0  0  0  0  0  0  0  0  0  0  0  0
   26.6061   32.7791   36.1649 C   0  0  0  0  0  0  0  0  0  0  0  0
   27.1251   32.4381   34.9142 C   0  0  0  0  0  0  0  0  0  0  0  0
   28.0327   31.3813   34.8002 C   0  0  0  0  0  0  0  0  0  0  0  0
   28.4264   30.6670   35.9369 C   0  0  0  0  0  0  0  0  0  0  0  0
   30.7931   30.2671   38.1251 C   0  0  0  0  0  0  0  0  0  0  0  0
   31.6229   29.4540   37.1063 C   0  0  0  0  0  0  0  0  0  0  0  0
  1  2  1  0
  2  3  2  0
  2  4  1  0
  4  5  2  0
  5  6  1  0
  6  7  2  0
  7  8  1  0
  8  9  2  0
  9 10  1  0
 10 11  2  0
 11 12  1  0
 12 13  2  0
 13 14  1  0
  8 15  1  0
 15 16  1  0
 16 17  1  0
 17 18  1  0
 18 19  1  0
 19 20  1  0
 20 21  2  0
 20 22  1  0
 22 23  2  0
 23 24  1  0
 24 25  2  0
 25 26  1  0
 26 27  2  0
 19 28  1  0
 28 29  1  0
 13  4  1  0
 29 15  1  0
 12  7  1  0
 27 22  1  0
M  END
>  <AAScore>  (1) 
-5.485657172070585

>  <RootName>  (1) 
./4ZLY/04_DeltaGEst/trajectory_02/rank_01/lead_0437

$$$$
