confid_2
     RDKit          3D

 32 36  0  0  0  0  0  0  0  0999 V2000
   24.5500   26.3900   36.2500 N   0  0  0  0  0  0  0  0  0  0  0  0
   25.6000   26.1300   35.4000 C   0  0  0  0  0  0  0  0  0  0  0  0
   25.4300   25.4300   34.4200 O   0  0  0  0  0  0  0  0  0  0  0  0
   26.9800   26.6300   35.7100 C   0  0  0  0  0  0  0  0  0  0  0  0
   27.3200   26.8200   36.9800 N   0  0  0  0  0  0  0  0  0  0  0  0
   28.4700   27.4000   37.3100 N   0  0  0  0  0  0  0  0  0  0  0  0
   29.4000   27.6300   36.3700 C   0  0  0  0  0  0  0  0  0  0  0  0
   30.6600   28.0500   36.8000 C   0  0  0  0  0  0  0  0  0  0  0  0
   31.5700   28.3600   35.7800 C   0  0  0  0  0  0  0  0  0  0  0  0
   31.3700   28.1000   34.4300 C   0  0  0  0  0  0  0  0  0  0  0  0
   30.1200   27.5900   34.0500 C   0  0  0  0  0  0  0  0  0  0  0  0
   29.1500   27.3400   35.0300 C   0  0  0  0  0  0  0  0  0  0  0  0
   27.8800   26.8900   34.6600 C   0  0  0  0  0  0  0  0  0  0  0  0
   27.4800   26.6100   33.3700 N   0  0  0  0  0  0  0  0  0  0  0  0
   23.1708   26.2059   35.8963 C   0  0  0  0  0  0  0  0  0  0  0  0
   22.3694   25.6294   36.7480 N   0  0  0  0  0  0  0  0  0  0  0  0
   20.9848   25.3851   36.4510 C   0  0  0  0  0  0  0  0  0  0  0  0
   20.4299   25.9417   35.3670 C   0  0  0  0  0  0  0  0  0  0  0  0
   19.2185   25.4203   34.6897 C   0  0  0  0  0  0  0  0  0  0  0  0
   19.1446   26.1424   33.4066 N   0  0  0  0  0  0  0  0  0  0  0  0
   18.6981   25.2539   32.3204 C   0  0  0  0  0  0  0  0  0  0  0  0
   20.4950   26.7000   33.1588 C   0  0  1  0  0  0  0  0  0  0  0  0
   20.4202   27.9288   32.2373 C   0  0  0  0  0  0  0  0  0  0  0  0
   21.1157   26.9892   34.5520 C   0  0  2  0  0  0  0  0  0  0  0  0
   22.6123   26.7259   34.6191 C   0  0  0  0  0  0  0  0  0  0  0  0
   23.3637   27.0414   33.6572 O   0  0  0  0  0  0  0  0  0  0  0  0
   20.7729   28.4001   35.0874 C   0  0  0  0  0  0  0  0  0  0  0  0
   19.4911   28.6956   35.6097 C   0  0  0  0  0  0  0  0  0  0  0  0
   19.1714   29.9832   36.0484 C   0  0  0  0  0  0  0  0  0  0  0  0
   20.1113   31.0079   35.9600 C   0  0  0  0  0  0  0  0  0  0  0  0
   21.3696   30.7515   35.4188 C   0  0  0  0  0  0  0  0  0  0  0  0
   21.6968   29.4669   34.9769 C   0  0  0  0  0  0  0  0  0  0  0  0
  1  2  1  0
  2  3  2  0
  2  4  1  0
  4  5  2  0
  5  6  1  0
  6  7  2  0
  7  8  1  0
  8  9  2  0
  9 10  1  0
 10 11  2  0
 11 12  1  0
 12 13  2  0
 13 14  1  0
  1 15  1  0
 15 16  2  0
 16 17  1  0
 17 18  2  0
 18 19  1  0
 19 20  1  0
 20 21  1  0
 20 22  1  0
 22 23  1  6
 22 24  1  0
 24 25  1  0
 25 26  2  0
 24 27  1  1
 27 28  2  0
 28 29  1  0
 29 30  2  0
 30 31  1  0
 31 32  2  0
 13  4  1  0
 25 15  1  0
 32 27  1  0
 12  7  1  0
 24 18  1  0
M  END
>  <AAScore>  (1) 
1855.5604538738123

>  <RootName>  (1) 
./4ZLY/04_DeltaGEst/trajectory_01/rank_00/lead_0268

$$$$
