confid_12
     RDKit          3D

 27 30  0  0  0  0  0  0  0  0999 V2000
   24.5700   26.8800   35.5900 N   0  0  0  0  0  0  0  0  0  0  0  0
   25.5000   26.4000   34.6900 C   0  0  0  0  0  0  0  0  0  0  0  0
   25.1700   25.5200   33.9100 O   0  0  0  0  0  0  0  0  0  0  0  0
   26.8400   27.0200   34.7400 C   0  0  0  0  0  0  0  0  0  0  0  0
   27.3800   27.2800   35.9400 N   0  0  0  0  0  0  0  0  0  0  0  0
   28.6200   27.7400   36.0300 N   0  0  0  0  0  0  0  0  0  0  0  0
   29.3800   28.0000   34.9600 C   0  0  0  0  0  0  0  0  0  0  0  0
   30.6700   28.5000   35.1300 C   0  0  0  0  0  0  0  0  0  0  0  0
   31.5400   28.6100   34.0300 C   0  0  0  0  0  0  0  0  0  0  0  0
   31.0900   28.2200   32.7700 C   0  0  0  0  0  0  0  0  0  0  0  0
   29.8000   27.7000   32.6000 C   0  0  0  0  0  0  0  0  0  0  0  0
   28.9600   27.5500   33.7100 C   0  0  0  0  0  0  0  0  0  0  0  0
   27.6600   27.0300   33.5900 C   0  0  0  0  0  0  0  0  0  0  0  0
   27.1600   26.7400   32.3400 N   0  0  0  0  0  0  0  0  0  0  0  0
   23.3090   26.2550   35.8876 C   0  0  0  0  0  0  0  0  0  0  0  0
   23.0141   24.9882   35.3939 N   0  0  0  0  0  0  0  0  0  0  0  0
   21.8366   24.3286   35.6499 C   0  0  0  0  0  0  0  0  0  0  0  0
   20.9408   24.9981   36.4446 C   0  0  0  0  0  0  0  0  0  0  0  0
   19.6163   25.0391   37.1329 C   0  0  1  0  0  0  0  0  0  0  0  0
   19.4823   23.9484   38.2128 C   0  0  0  0  0  0  0  0  0  0  0  0
   19.4071   22.6118   37.5832 N   0  0  0  0  0  0  0  0  0  0  0  0
   18.0304   22.2948   37.1388 C   0  0  0  0  0  0  0  0  0  0  0  0
   18.0692   21.4291   35.8833 C   0  0  0  0  0  0  0  0  0  0  0  0
   19.9018   21.5823   38.5145 C   0  0  0  0  0  0  0  0  0  0  0  0
   19.9531   26.3627   37.6478 C   0  0  0  0  0  0  0  0  0  0  0  0
   21.2616   26.2763   36.9372 C   0  0  0  0  0  0  0  0  0  0  0  0
   22.4117   26.9259   36.6900 N   0  0  0  0  0  0  0  0  0  0  0  0
  1  2  1  0
  2  3  2  0
  2  4  1  0
  4  5  2  0
  5  6  1  0
  6  7  2  0
  7  8  1  0
  8  9  2  0
  9 10  1  0
 10 11  2  0
 11 12  1  0
 12 13  2  0
 13 14  1  0
  1 15  1  0
 15 16  2  0
 16 17  1  0
 17 18  2  0
 18 19  1  0
 19 20  1  1
 20 21  1  0
 21 22  1  0
 22 23  1  0
 21 24  1  0
 19 25  1  0
 25 26  1  0
 26 27  2  0
 13  4  1  0
 27 15  1  0
 12  7  1  0
 26 18  1  0
M  END
>  <AAScore>  (1) 
29884.52314468921

>  <RootName>  (1) 
./4ZLY/04_DeltaGEst/trajectory_05/rank_00/lead_0125

$$$$
