confid_0
     RDKit          3D

 27 31  0  0  0  0  0  0  0  0999 V2000
   24.5700   26.8800   35.5900 N   0  0  0  0  0  0  0  0  0  0  0  0
   25.5000   26.4000   34.6900 C   0  0  0  0  0  0  0  0  0  0  0  0
   25.1700   25.5200   33.9100 O   0  0  0  0  0  0  0  0  0  0  0  0
   26.8400   27.0200   34.7400 C   0  0  0  0  0  0  0  0  0  0  0  0
   27.3800   27.2800   35.9400 N   0  0  0  0  0  0  0  0  0  0  0  0
   28.6200   27.7400   36.0300 N   0  0  0  0  0  0  0  0  0  0  0  0
   29.3800   28.0000   34.9600 C   0  0  0  0  0  0  0  0  0  0  0  0
   30.6700   28.5000   35.1300 C   0  0  0  0  0  0  0  0  0  0  0  0
   31.5400   28.6100   34.0300 C   0  0  0  0  0  0  0  0  0  0  0  0
   31.0900   28.2200   32.7700 C   0  0  0  0  0  0  0  0  0  0  0  0
   29.8000   27.7000   32.6000 C   0  0  0  0  0  0  0  0  0  0  0  0
   28.9600   27.5500   33.7100 C   0  0  0  0  0  0  0  0  0  0  0  0
   27.6600   27.0300   33.5900 C   0  0  0  0  0  0  0  0  0  0  0  0
   27.1600   26.7400   32.3400 N   0  0  0  0  0  0  0  0  0  0  0  0
   23.1678   26.5904   35.4951 C   0  0  0  0  0  0  0  0  0  0  0  0
   22.4589   26.1336   36.5476 N   0  0  0  0  0  0  0  0  0  0  0  0
   21.2106   25.9876   36.0644 C   0  0  0  0  0  0  0  0  0  0  0  0
   21.1792   26.3660   34.7375 C   0  0  0  0  0  0  0  0  0  0  0  0
   19.9437   26.3358   33.8688 C   0  0  2  0  0  0  0  0  0  0  0  0
   20.2706   26.2955   32.3603 C   0  0  0  0  0  0  0  0  0  0  0  0
   20.7240   27.5753   31.7847 N   0  0  0  0  0  0  0  0  0  0  0  0
   21.8016   28.2728   32.5072 C   0  0  0  0  0  0  0  0  0  0  0  0
   22.8595   27.3340   33.0967 C   0  0  0  0  0  0  0  0  0  0  0  0
   22.4180   26.7748   34.3810 N   0  0  0  0  0  0  0  0  0  0  0  0
   18.9898   27.4943   34.2325 C   0  0  0  0  0  0  0  0  0  0  0  0
   17.5288   27.2732   33.8664 C   0  0  0  0  0  0  0  0  0  0  0  0
   17.9670   27.1905   35.3196 C   0  0  0  0  0  0  0  0  0  0  0  0
  1  2  1  0
  2  3  2  0
  2  4  1  0
  4  5  2  0
  5  6  1  0
  6  7  2  0
  7  8  1  0
  8  9  2  0
  9 10  1  0
 10 11  2  0
 11 12  1  0
 12 13  2  0
 13 14  1  0
  1 15  1  0
 15 16  2  0
 16 17  1  0
 17 18  2  0
 18 19  1  0
 19 20  1  0
 20 21  1  0
 21 22  1  0
 22 23  1  0
 23 24  1  0
 19 25  1  6
 25 26  1  0
 26 27  1  0
 13  4  1  0
 24 15  1  0
 27 25  1  0
 12  7  1  0
 24 18  1  0
M  END
>  <AAScore>  (1) 
2267.640312458044

>  <RootName>  (1) 
./4ZLY/04_DeltaGEst/trajectory_05/rank_00/lead_0403

$$$$
