confid_0
     RDKit          3D

 27 30  0  0  0  0  0  0  0  0999 V2000
   24.4800   26.1000   36.1300 N   0  0  0  0  0  0  0  0  0  0  0  0
   25.2500   26.2500   34.9900 C   0  0  0  0  0  0  0  0  0  0  0  0
   24.7400   25.7600   33.9900 O   0  0  0  0  0  0  0  0  0  0  0  0
   26.5900   26.8900   34.9600 C   0  0  0  0  0  0  0  0  0  0  0  0
   27.0600   27.2400   36.1600 N   0  0  0  0  0  0  0  0  0  0  0  0
   28.3000   27.7100   36.2400 N   0  0  0  0  0  0  0  0  0  0  0  0
   29.0500   27.9600   35.1500 C   0  0  0  0  0  0  0  0  0  0  0  0
   30.3400   28.4900   35.2600 C   0  0  0  0  0  0  0  0  0  0  0  0
   31.1100   28.8200   34.1400 C   0  0  0  0  0  0  0  0  0  0  0  0
   30.5200   28.6700   32.8800 C   0  0  0  0  0  0  0  0  0  0  0  0
   29.2900   28.0200   32.7700 C   0  0  0  0  0  0  0  0  0  0  0  0
   28.5200   27.7100   33.8900 C   0  0  0  0  0  0  0  0  0  0  0  0
   27.2700   27.0800   33.7600 C   0  0  0  0  0  0  0  0  0  0  0  0
   26.7500   26.8800   32.4900 N   0  0  0  0  0  0  0  0  0  0  0  0
   23.4722   25.0824   36.3059 C   0  0  0  0  0  0  0  0  0  0  0  0
   23.6000   23.9002   35.6454 N   0  0  0  0  0  0  0  0  0  0  0  0
   22.7278   22.8769   35.8059 C   0  0  0  0  0  0  0  0  0  0  0  0
   21.6734   22.9863   36.7153 C   0  0  0  0  0  0  0  0  0  0  0  0
   20.6858   21.8561   36.8518 C   0  0  0  0  0  0  0  0  0  0  0  0
   20.1668   21.7799   38.2139 N   0  0  0  0  0  0  0  0  0  0  0  0
   19.9274   22.9750   38.9658 C   0  0  0  0  0  0  0  0  0  0  0  0
   19.3286   22.9167   40.0733 O   0  0  0  0  0  0  0  0  0  0  0  0
   20.3567   24.3080   38.4257 C   0  0  0  0  0  0  0  0  0  0  0  0
   21.5056   24.1861   37.4402 C   0  0  0  0  0  0  0  0  0  0  0  0
   22.3820   25.2755   37.1891 C   0  0  0  0  0  0  0  0  0  0  0  0
   22.1709   26.6169   37.8553 C   0  0  0  0  0  0  0  0  0  0  0  0
   19.6767   20.2314   38.8504 Cl  0  0  0  0  0  0  0  0  0  0  0  0
  1  2  1  0
  2  3  2  0
  2  4  1  0
  4  5  2  0
  5  6  1  0
  6  7  2  0
  7  8  1  0
  8  9  2  0
  9 10  1  0
 10 11  2  0
 11 12  1  0
 12 13  2  0
 13 14  1  0
  1 15  1  0
 15 16  2  0
 16 17  1  0
 17 18  2  0
 18 19  1  0
 19 20  1  0
 20 21  1  0
 21 22  2  0
 21 23  1  0
 23 24  1  0
 24 25  2  0
 25 26  1  0
 20 27  1  0
 13  4  1  0
 25 15  1  0
 12  7  1  0
 24 18  1  0
M  END
>  <AAScore>  (1) 
3637.1985874218526

>  <RootName>  (1) 
./4ZLY/04_DeltaGEst/trajectory_00/rank_00/lead_0362

$$$$
