confid_3
     RDKit          3D

 29 32  0  0  0  0  0  0  0  0999 V2000
   24.6900   26.1200   35.5300 N   0  0  0  0  0  0  0  0  0  0  0  0
   25.6600   25.6700   34.6600 C   0  0  0  0  0  0  0  0  0  0  0  0
   25.2400   25.0100   33.7200 O   0  0  0  0  0  0  0  0  0  0  0  0
   27.0300   26.2200   34.8800 C   0  0  0  0  0  0  0  0  0  0  0  0
   27.3500   26.7300   36.0700 N   0  0  0  0  0  0  0  0  0  0  0  0
   28.5700   27.1800   36.3300 N   0  0  0  0  0  0  0  0  0  0  0  0
   29.5300   27.1100   35.3900 C   0  0  0  0  0  0  0  0  0  0  0  0
   30.8300   27.5700   35.6500 C   0  0  0  0  0  0  0  0  0  0  0  0
   31.8500   27.5400   34.6900 C   0  0  0  0  0  0  0  0  0  0  0  0
   31.5100   27.1200   33.4000 C   0  0  0  0  0  0  0  0  0  0  0  0
   30.2200   26.6300   33.1100 C   0  0  0  0  0  0  0  0  0  0  0  0
   29.2400   26.6600   34.1000 C   0  0  0  0  0  0  0  0  0  0  0  0
   27.9300   26.2600   33.8100 C   0  0  0  0  0  0  0  0  0  0  0  0
   27.5200   25.7100   32.6100 N   0  0  0  0  0  0  0  0  0  0  0  0
   23.3202   26.3796   35.1708 C   0  0  0  0  0  0  0  0  0  0  0  0
   22.9674   26.4525   33.9203 N   0  0  0  0  0  0  0  0  0  0  0  0
   21.6333   26.7223   33.4699 C   0  0  0  0  0  0  0  0  0  0  0  0
   20.5449   26.2676   34.1037 C   0  0  0  0  0  0  0  0  0  0  0  0
   19.2830   26.6170   33.7323 O   0  0  0  0  0  0  0  0  0  0  0  0
   18.3625   25.9997   34.6033 C   0  0  0  0  0  0  0  0  0  0  0  0
   19.0844   25.2886   35.5990 O   0  0  0  0  0  0  0  0  0  0  0  0
   20.4625   25.3138   35.2502 C   0  0  1  0  0  0  0  0  0  0  0  0
   20.8393   23.8802   34.8033 C   0  0  0  0  0  0  0  0  0  0  0  0
   22.2184   23.7796   34.5180 O   0  0  0  0  0  0  0  0  0  0  0  0
   22.5214   22.4659   34.1078 C   0  0  0  0  0  0  0  0  0  0  0  0
   21.2723   25.7614   36.5045 C   0  0  0  0  0  0  0  0  0  0  0  0
   22.3720   26.6880   36.2023 N   0  0  0  0  0  0  0  0  0  0  0  0
   22.4862   27.9618   36.9199 C   0  0  0  0  0  0  0  0  0  0  0  0
   21.6624   29.0381   36.2231 C   0  0  0  0  0  0  0  0  0  0  0  0
  1  2  1  0
  2  3  2  0
  2  4  1  0
  4  5  2  0
  5  6  1  0
  6  7  2  0
  7  8  1  0
  8  9  2  0
  9 10  1  0
 10 11  2  0
 11 12  1  0
 12 13  2  0
 13 14  1  0
  1 15  1  0
 15 16  2  0
 16 17  1  0
 17 18  2  0
 18 19  1  0
 19 20  1  0
 20 21  1  0
 21 22  1  0
 22 23  1  6
 23 24  1  0
 24 25  1  0
 22 26  1  0
 26 27  1  0
 27 28  1  0
 28 29  1  0
 13  4  1  0
 27 15  1  0
 12  7  1  0
 22 18  1  0
M  END
>  <AAScore>  (1) 
3812.411061675436

>  <RootName>  (1) 
./4ZLY/04_DeltaGEst/trajectory_02/rank_00/lead_0125

$$$$
