confid_18
     RDKit          3D

 28 31  0  0  0  0  0  0  0  0999 V2000
   24.2000   26.2400   35.6900 N   0  0  0  0  0  0  0  0  0  0  0  0
   24.8500   26.2800   34.4800 C   0  0  0  0  0  0  0  0  0  0  0  0
   24.3100   25.7400   33.5400 O   0  0  0  0  0  0  0  0  0  0  0  0
   26.1800   26.9700   34.4700 C   0  0  0  0  0  0  0  0  0  0  0  0
   26.6500   27.6000   35.5500 N   0  0  0  0  0  0  0  0  0  0  0  0
   27.7900   28.2700   35.6200 N   0  0  0  0  0  0  0  0  0  0  0  0
   28.5400   28.3000   34.5100 C   0  0  0  0  0  0  0  0  0  0  0  0
   29.7700   28.9400   34.5600 C   0  0  0  0  0  0  0  0  0  0  0  0
   30.7000   28.8900   33.5000 C   0  0  0  0  0  0  0  0  0  0  0  0
   30.3700   28.1400   32.3700 C   0  0  0  0  0  0  0  0  0  0  0  0
   29.1200   27.5200   32.2800 C   0  0  0  0  0  0  0  0  0  0  0  0
   28.2100   27.6100   33.3300 C   0  0  0  0  0  0  0  0  0  0  0  0
   26.9700   26.9700   33.3100 C   0  0  0  0  0  0  0  0  0  0  0  0
   26.5300   26.2400   32.2200 N   0  0  0  0  0  0  0  0  0  0  0  0
   22.7754   26.0882   35.8401 C   0  0  0  0  0  0  0  0  0  0  0  0
   21.9424   26.1825   34.7673 N   0  0  0  0  0  0  0  0  0  0  0  0
   20.5932   26.0655   34.8910 C   0  0  0  0  0  0  0  0  0  0  0  0
   19.7443   26.1093   33.6568 C   0  0  0  0  0  0  0  0  0  0  0  0
   18.2447   26.2535   33.9564 C   0  0  0  0  0  0  0  0  0  0  0  0
   17.8069   25.4760   35.1306 N   0  0  0  0  0  0  0  0  0  0  0  0
   17.3708   24.0821   34.8991 C   0  0  0  0  0  0  0  0  0  0  0  0
   18.5163   23.1086   34.5538 C   0  0  1  0  0  0  0  0  0  0  0  0
   18.1602   21.6786   34.9552 C   0  0  0  0  0  0  0  0  0  0  0  0
   18.7482   23.1283   33.1898 F   0  0  0  0  0  0  0  0  0  0  0  0
   18.5607   25.7279   36.3738 C   0  0  0  0  0  0  0  0  0  0  0  0
   20.0447   25.8168   36.1588 C   0  0  0  0  0  0  0  0  0  0  0  0
   20.8741   25.7415   37.2338 N   0  0  0  0  0  0  0  0  0  0  0  0
   22.2199   25.8686   37.1057 C   0  0  0  0  0  0  0  0  0  0  0  0
  1  2  1  0
  2  3  2  0
  2  4  1  0
  4  5  2  0
  5  6  1  0
  6  7  2  0
  7  8  1  0
  8  9  2  0
  9 10  1  0
 10 11  2  0
 11 12  1  0
 12 13  2  0
 13 14  1  0
  1 15  1  0
 15 16  2  0
 16 17  1  0
 17 18  1  0
 18 19  1  0
 19 20  1  0
 20 21  1  0
 21 22  1  0
 22 23  1  6
 22 24  1  0
 20 25  1  0
 25 26  1  0
 26 27  1  0
 27 28  2  0
 13  4  1  0
 28 15  1  0
 12  7  1  0
 26 17  2  0
M  END
>  <AAScore>  (1) 
805.6406662658655

>  <RootName>  (1) 
./4ZLY/04_DeltaGEst/trajectory_04/rank_00/lead_0286

$$$$
