confid_14
     RDKit          3D

 28 31  0  0  0  0  0  0  0  0999 V2000
   24.6900   26.1200   35.5300 N   0  0  0  0  0  0  0  0  0  0  0  0
   25.6600   25.6700   34.6600 C   0  0  0  0  0  0  0  0  0  0  0  0
   25.2400   25.0100   33.7200 O   0  0  0  0  0  0  0  0  0  0  0  0
   27.0300   26.2200   34.8800 C   0  0  0  0  0  0  0  0  0  0  0  0
   27.3500   26.7300   36.0700 N   0  0  0  0  0  0  0  0  0  0  0  0
   28.5700   27.1800   36.3300 N   0  0  0  0  0  0  0  0  0  0  0  0
   29.5300   27.1100   35.3900 C   0  0  0  0  0  0  0  0  0  0  0  0
   30.8300   27.5700   35.6500 C   0  0  0  0  0  0  0  0  0  0  0  0
   31.8500   27.5400   34.6900 C   0  0  0  0  0  0  0  0  0  0  0  0
   31.5100   27.1200   33.4000 C   0  0  0  0  0  0  0  0  0  0  0  0
   30.2200   26.6300   33.1100 C   0  0  0  0  0  0  0  0  0  0  0  0
   29.2400   26.6600   34.1000 C   0  0  0  0  0  0  0  0  0  0  0  0
   27.9300   26.2600   33.8100 C   0  0  0  0  0  0  0  0  0  0  0  0
   27.5200   25.7100   32.6100 N   0  0  0  0  0  0  0  0  0  0  0  0
   31.1534   28.0774   36.9541 N   0  0  0  0  0  0  0  0  0  0  0  0
   31.6217   27.1703   38.0080 C   0  0  0  0  0  0  0  0  0  0  0  0
   30.5890   27.0302   39.1354 C   0  0  0  0  0  0  0  0  0  0  0  0
   30.0529   28.3785   39.6341 C   0  0  0  0  0  0  0  0  0  0  0  0
   29.1170   28.9389   38.6243 N   0  0  0  0  0  0  0  0  0  0  0  0
   27.8236   29.3709   39.2373 C   0  0  0  0  0  0  0  0  0  0  0  0
   26.9877   28.1197   39.6073 C   0  0  0  0  0  0  0  0  0  0  0  0
   25.6217   28.5070   40.1807 C   0  0  0  0  0  0  0  0  0  0  0  0
   24.8699   29.3140   39.2033 N   0  0  0  0  0  0  0  0  0  0  0  0
   23.5298   29.6175   39.7280 C   0  0  0  0  0  0  0  0  0  0  0  0
   25.5942   30.5656   38.9191 C   0  0  0  0  0  0  0  0  0  0  0  0
   26.9632   30.2613   38.3007 C   0  0  0  0  0  0  0  0  0  0  0  0
   29.7725   29.9698   37.7773 C   0  0  0  0  0  0  0  0  0  0  0  0
   31.1299   29.5222   37.2025 C   0  0  0  0  0  0  0  0  0  0  0  0
  1  2  1  0
  2  3  2  0
  2  4  1  0
  4  5  2  0
  5  6  1  0
  6  7  2  0
  7  8  1  0
  8  9  2  0
  9 10  1  0
 10 11  2  0
 11 12  1  0
 12 13  2  0
 13 14  1  0
  8 15  1  0
 15 16  1  0
 16 17  1  0
 17 18  1  0
 18 19  1  0
 19 20  1  0
 20 21  1  0
 21 22  1  0
 22 23  1  0
 23 24  1  0
 23 25  1  0
 25 26  1  0
 19 27  1  0
 27 28  1  0
 13  4  1  0
 28 15  1  0
 12  7  1  0
 26 20  1  0
M  END
>  <AAScore>  (1) 
80.35516453441258

>  <RootName>  (1) 
./4ZLY/04_DeltaGEst/trajectory_02/rank_01/lead_0219

$$$$
