confid_13
     RDKit          3D

 28 31  0  0  0  0  0  0  0  0999 V2000
   24.5500   26.3900   36.2500 N   0  0  0  0  0  0  0  0  0  0  0  0
   25.6000   26.1300   35.4000 C   0  0  0  0  0  0  0  0  0  0  0  0
   25.4300   25.4300   34.4200 O   0  0  0  0  0  0  0  0  0  0  0  0
   26.9800   26.6300   35.7100 C   0  0  0  0  0  0  0  0  0  0  0  0
   27.3200   26.8200   36.9800 N   0  0  0  0  0  0  0  0  0  0  0  0
   28.4700   27.4000   37.3100 N   0  0  0  0  0  0  0  0  0  0  0  0
   29.4000   27.6300   36.3700 C   0  0  0  0  0  0  0  0  0  0  0  0
   30.6600   28.0500   36.8000 C   0  0  0  0  0  0  0  0  0  0  0  0
   31.5700   28.3600   35.7800 C   0  0  0  0  0  0  0  0  0  0  0  0
   31.3700   28.1000   34.4300 C   0  0  0  0  0  0  0  0  0  0  0  0
   30.1200   27.5900   34.0500 C   0  0  0  0  0  0  0  0  0  0  0  0
   29.1500   27.3400   35.0300 C   0  0  0  0  0  0  0  0  0  0  0  0
   27.8800   26.8900   34.6600 C   0  0  0  0  0  0  0  0  0  0  0  0
   27.4800   26.6100   33.3700 N   0  0  0  0  0  0  0  0  0  0  0  0
   23.1824   25.9188   35.9898 C   0  0  0  0  0  0  0  0  0  0  0  0
   22.3146   26.0696   37.2464 C   0  0  0  0  0  0  0  0  0  0  0  0
   20.8854   25.5461   36.9953 C   0  0  0  0  0  0  0  0  0  0  0  0
   20.3518   25.8553   35.6398 N   0  0  0  0  0  0  0  0  0  0  0  0
   20.2526   24.6615   34.7727 C   0  0  0  0  0  0  0  0  0  0  0  0
   19.0813   23.8170   35.1832 C   0  0  0  0  0  0  0  0  0  0  0  0
   17.7733   24.2865   35.0206 C   0  0  0  0  0  0  0  0  0  0  0  0
   16.7178   23.4699   35.4235 C   0  0  0  0  0  0  0  0  0  0  0  0
   16.9718   22.2495   35.9630 N   0  0  0  0  0  0  0  0  0  0  0  0
   18.2479   21.8094   36.1275 C   0  0  0  0  0  0  0  0  0  0  0  0
   19.2895   22.5888   35.7302 N   0  0  0  0  0  0  0  0  0  0  0  0
   18.5006   20.4515   36.6928 C   0  0  0  0  0  0  0  0  0  0  0  0
   21.0595   26.9685   34.9745 C   0  0  0  0  0  0  0  0  0  0  0  0
   22.5648   26.6867   34.7971 C   0  0  0  0  0  0  0  0  0  0  0  0
  1  2  1  0
  2  3  2  0
  2  4  1  0
  4  5  2  0
  5  6  1  0
  6  7  2  0
  7  8  1  0
  8  9  2  0
  9 10  1  0
 10 11  2  0
 11 12  1  0
 12 13  2  0
 13 14  1  0
  1 15  1  0
 15 16  1  0
 16 17  1  0
 17 18  1  0
 18 19  1  0
 19 20  1  0
 20 21  2  0
 21 22  1  0
 22 23  2  0
 23 24  1  0
 24 25  2  0
 24 26  1  0
 18 27  1  0
 27 28  1  0
 13  4  1  0
 28 15  1  0
 12  7  1  0
 25 20  1  0
M  END
>  <AAScore>  (1) 
508.7383656652471

>  <RootName>  (1) 
./4ZLY/04_DeltaGEst/trajectory_01/rank_00/lead_0030

$$$$
