confid_11
     RDKit          3D

 27 30  0  0  0  0  0  0  0  0999 V2000
   24.4800   26.1000   36.1300 N   0  0  0  0  0  0  0  0  0  0  0  0
   25.2500   26.2500   34.9900 C   0  0  0  0  0  0  0  0  0  0  0  0
   24.7400   25.7600   33.9900 O   0  0  0  0  0  0  0  0  0  0  0  0
   26.5900   26.8900   34.9600 C   0  0  0  0  0  0  0  0  0  0  0  0
   27.0600   27.2400   36.1600 N   0  0  0  0  0  0  0  0  0  0  0  0
   28.3000   27.7100   36.2400 N   0  0  0  0  0  0  0  0  0  0  0  0
   29.0500   27.9600   35.1500 C   0  0  0  0  0  0  0  0  0  0  0  0
   30.3400   28.4900   35.2600 C   0  0  0  0  0  0  0  0  0  0  0  0
   31.1100   28.8200   34.1400 C   0  0  0  0  0  0  0  0  0  0  0  0
   30.5200   28.6700   32.8800 C   0  0  0  0  0  0  0  0  0  0  0  0
   29.2900   28.0200   32.7700 C   0  0  0  0  0  0  0  0  0  0  0  0
   28.5200   27.7100   33.8900 C   0  0  0  0  0  0  0  0  0  0  0  0
   27.2700   27.0800   33.7600 C   0  0  0  0  0  0  0  0  0  0  0  0
   26.7500   26.8800   32.4900 N   0  0  0  0  0  0  0  0  0  0  0  0
   23.3829   25.1831   36.2872 C   0  0  0  0  0  0  0  0  0  0  0  0
   23.0728   24.2091   35.3875 N   0  0  0  0  0  0  0  0  0  0  0  0
   22.0119   23.5073   35.8476 C   0  0  0  0  0  0  0  0  0  0  0  0
   21.3521   22.2934   35.3270 C   0  0  0  0  0  0  0  0  0  0  0  0
   20.3812   21.9913   36.3951 N   0  0  0  0  0  0  0  0  0  0  0  0
   19.4267   20.9150   36.3599 C   0  0  0  0  0  0  0  0  0  0  0  0
   18.5915   20.8004   37.2989 O   0  0  0  0  0  0  0  0  0  0  0  0
   19.3536   19.9623   35.1927 C   0  0  1  0  0  0  0  0  0  0  0  0
   19.1389   18.5219   35.6559 C   0  0  0  0  0  0  0  0  0  0  0  0
   18.3110   20.3412   34.3652 F   0  0  0  0  0  0  0  0  0  0  0  0
   20.4600   22.9517   37.5097 C   0  0  0  0  0  0  0  0  0  0  0  0
   21.5163   23.8680   37.0430 C   0  0  0  0  0  0  0  0  0  0  0  0
   22.3898   25.1484   37.6769 S   0  0  0  0  0  0  0  0  0  0  0  0
  1  2  1  0
  2  3  2  0
  2  4  1  0
  4  5  2  0
  5  6  1  0
  6  7  2  0
  7  8  1  0
  8  9  2  0
  9 10  1  0
 10 11  2  0
 11 12  1  0
 12 13  2  0
 13 14  1  0
  1 15  1  0
 15 16  2  0
 16 17  1  0
 17 18  1  0
 18 19  1  0
 19 20  1  0
 20 21  2  0
 20 22  1  0
 22 23  1  1
 22 24  1  0
 19 25  1  0
 25 26  1  0
 26 27  1  0
 13  4  1  0
 27 15  1  0
 12  7  1  0
 26 17  2  0
M  END
>  <AAScore>  (1) 
1600.4836643461667

>  <RootName>  (1) 
./4ZLY/04_DeltaGEst/trajectory_00/rank_01/lead_0027

$$$$
