confid_19
     RDKit          3D

 27 30  0  0  0  0  0  0  0  0999 V2000
   24.6900   26.1200   35.5300 N   0  0  0  0  0  0  0  0  0  0  0  0
   25.6600   25.6700   34.6600 C   0  0  0  0  0  0  0  0  0  0  0  0
   25.2400   25.0100   33.7200 O   0  0  0  0  0  0  0  0  0  0  0  0
   27.0300   26.2200   34.8800 C   0  0  0  0  0  0  0  0  0  0  0  0
   27.3500   26.7300   36.0700 N   0  0  0  0  0  0  0  0  0  0  0  0
   28.5700   27.1800   36.3300 N   0  0  0  0  0  0  0  0  0  0  0  0
   29.5300   27.1100   35.3900 C   0  0  0  0  0  0  0  0  0  0  0  0
   30.8300   27.5700   35.6500 C   0  0  0  0  0  0  0  0  0  0  0  0
   31.8500   27.5400   34.6900 C   0  0  0  0  0  0  0  0  0  0  0  0
   31.5100   27.1200   33.4000 C   0  0  0  0  0  0  0  0  0  0  0  0
   30.2200   26.6300   33.1100 C   0  0  0  0  0  0  0  0  0  0  0  0
   29.2400   26.6600   34.1000 C   0  0  0  0  0  0  0  0  0  0  0  0
   27.9300   26.2600   33.8100 C   0  0  0  0  0  0  0  0  0  0  0  0
   27.5200   25.7100   32.6100 N   0  0  0  0  0  0  0  0  0  0  0  0
   31.1493   28.0595   36.9621 N   0  0  0  0  0  0  0  0  0  0  0  0
   31.4656   29.4836   37.1404 C   0  0  0  0  0  0  0  0  0  0  0  0
   31.7725   29.8023   38.6060 C   0  0  0  0  0  0  0  0  0  0  0  0
   30.7772   29.1541   39.4709 N   0  0  0  0  0  0  0  0  0  0  0  0
   30.0167   29.9247   40.4209 C   0  0  0  0  0  0  0  0  0  0  0  0
   29.3953   31.1240   40.0303 C   0  0  0  0  0  0  0  0  0  0  0  0
   28.6452   31.8638   40.9493 C   0  0  0  0  0  0  0  0  0  0  0  0
   28.5048   31.4123   42.2651 C   0  0  0  0  0  0  0  0  0  0  0  0
   27.5630   32.3415   43.4167 Cl  0  0  0  0  0  0  0  0  0  0  0  0
   29.1137   30.2173   42.6608 C   0  0  0  0  0  0  0  0  0  0  0  0
   29.8638   29.4747   41.7437 C   0  0  0  0  0  0  0  0  0  0  0  0
   30.4940   27.7185   39.3099 C   0  0  0  0  0  0  0  0  0  0  0  0
   31.2241   27.1293   38.0958 C   0  0  0  0  0  0  0  0  0  0  0  0
  1  2  1  0
  2  3  2  0
  2  4  1  0
  4  5  2  0
  5  6  1  0
  6  7  2  0
  7  8  1  0
  8  9  2  0
  9 10  1  0
 10 11  2  0
 11 12  1  0
 12 13  2  0
 13 14  1  0
  8 15  1  0
 15 16  1  0
 16 17  1  0
 17 18  1  0
 18 19  1  0
 19 20  2  0
 20 21  1  0
 21 22  2  0
 22 23  1  0
 22 24  1  0
 24 25  2  0
 18 26  1  0
 26 27  1  0
 13  4  1  0
 27 15  1  0
 12  7  1  0
 25 19  1  0
M  END
>  <AAScore>  (1) 
11.7739471903488

>  <RootName>  (1) 
./4ZLY/04_DeltaGEst/trajectory_02/rank_01/lead_0375

$$$$
