confid_14
     RDKit          3D

 27 30  0  0  0  0  0  0  0  0999 V2000
   24.4800   26.1000   36.1300 N   0  0  0  0  0  0  0  0  0  0  0  0
   25.2500   26.2500   34.9900 C   0  0  0  0  0  0  0  0  0  0  0  0
   24.7400   25.7600   33.9900 O   0  0  0  0  0  0  0  0  0  0  0  0
   26.5900   26.8900   34.9600 C   0  0  0  0  0  0  0  0  0  0  0  0
   27.0600   27.2400   36.1600 N   0  0  0  0  0  0  0  0  0  0  0  0
   28.3000   27.7100   36.2400 N   0  0  0  0  0  0  0  0  0  0  0  0
   29.0500   27.9600   35.1500 C   0  0  0  0  0  0  0  0  0  0  0  0
   30.3400   28.4900   35.2600 C   0  0  0  0  0  0  0  0  0  0  0  0
   31.1100   28.8200   34.1400 C   0  0  0  0  0  0  0  0  0  0  0  0
   30.5200   28.6700   32.8800 C   0  0  0  0  0  0  0  0  0  0  0  0
   29.2900   28.0200   32.7700 C   0  0  0  0  0  0  0  0  0  0  0  0
   28.5200   27.7100   33.8900 C   0  0  0  0  0  0  0  0  0  0  0  0
   27.2700   27.0800   33.7600 C   0  0  0  0  0  0  0  0  0  0  0  0
   26.7500   26.8800   32.4900 N   0  0  0  0  0  0  0  0  0  0  0  0
   23.4704   25.0948   36.3360 C   0  0  0  0  0  0  0  0  0  0  0  0
   22.6724   25.1664   37.4344 N   0  0  0  0  0  0  0  0  0  0  0  0
   21.7179   24.2311   37.6741 C   0  0  0  0  0  0  0  0  0  0  0  0
   21.5380   23.1696   36.7820 C   0  0  0  0  0  0  0  0  0  0  0  0
   20.5279   22.0863   37.0684 C   0  0  0  0  0  0  0  0  0  0  0  0
   20.1949   21.3179   35.8495 N   0  0  0  0  0  0  0  0  0  0  0  0
   21.4337   20.8164   35.2186 C   0  0  0  0  0  0  0  0  0  0  0  0
   22.2393   21.9907   34.6572 C   0  0  0  0  0  0  0  0  0  0  0  0
   22.3940   23.0869   35.6720 C   0  0  0  0  0  0  0  0  0  0  0  0
   23.3265   24.0545   35.4697 N   0  0  0  0  0  0  0  0  0  0  0  0
   19.2763   20.2051   36.1762 C   0  0  0  0  0  0  0  0  0  0  0  0
   18.3856   19.8785   34.9710 C   0  0  0  0  0  0  0  0  0  0  0  0
   17.3784   18.7823   35.3076 C   0  0  0  0  0  0  0  0  0  0  0  0
  1  2  1  0
  2  3  2  0
  2  4  1  0
  4  5  2  0
  5  6  1  0
  6  7  2  0
  7  8  1  0
  8  9  2  0
  9 10  1  0
 10 11  2  0
 11 12  1  0
 12 13  2  0
 13 14  1  0
  1 15  1  0
 15 16  2  0
 16 17  1  0
 17 18  2  0
 18 19  1  0
 19 20  1  0
 20 21  1  0
 21 22  1  0
 22 23  1  0
 23 24  2  0
 20 25  1  0
 25 26  1  0
 26 27  1  0
 13  4  1  0
 24 15  1  0
 12  7  1  0
 23 18  1  0
M  END
>  <AAScore>  (1) 
273.929996205202

>  <RootName>  (1) 
./4ZLY/04_DeltaGEst/trajectory_00/rank_00/lead_0249

$$$$
