confid_5
     RDKit          3D

 29 32  0  0  0  0  0  0  0  0999 V2000
   24.6900   26.1200   35.5300 N   0  0  0  0  0  0  0  0  0  0  0  0
   25.6600   25.6700   34.6600 C   0  0  0  0  0  0  0  0  0  0  0  0
   25.2400   25.0100   33.7200 O   0  0  0  0  0  0  0  0  0  0  0  0
   27.0300   26.2200   34.8800 C   0  0  0  0  0  0  0  0  0  0  0  0
   27.3500   26.7300   36.0700 N   0  0  0  0  0  0  0  0  0  0  0  0
   28.5700   27.1800   36.3300 N   0  0  0  0  0  0  0  0  0  0  0  0
   29.5300   27.1100   35.3900 C   0  0  0  0  0  0  0  0  0  0  0  0
   30.8300   27.5700   35.6500 C   0  0  0  0  0  0  0  0  0  0  0  0
   31.8500   27.5400   34.6900 C   0  0  0  0  0  0  0  0  0  0  0  0
   31.5100   27.1200   33.4000 C   0  0  0  0  0  0  0  0  0  0  0  0
   30.2200   26.6300   33.1100 C   0  0  0  0  0  0  0  0  0  0  0  0
   29.2400   26.6600   34.1000 C   0  0  0  0  0  0  0  0  0  0  0  0
   27.9300   26.2600   33.8100 C   0  0  0  0  0  0  0  0  0  0  0  0
   27.5200   25.7100   32.6100 N   0  0  0  0  0  0  0  0  0  0  0  0
   23.2861   26.1954   35.2225 C   0  0  0  0  0  0  0  0  0  0  0  0
   22.3815   25.9203   36.1964 N   0  0  0  0  0  0  0  0  0  0  0  0
   21.0437   25.9567   35.9705 C   0  0  0  0  0  0  0  0  0  0  0  0
   20.5399   26.2884   34.7020 C   0  0  0  0  0  0  0  0  0  0  0  0
   19.0440   26.2533   34.4781 C   0  0  0  0  0  0  0  0  0  0  0  0
   18.6142   24.9895   33.7191 C   0  0  0  0  0  0  0  0  0  0  0  0
   18.5225   25.2469   32.2776 N   0  0  0  0  0  0  0  0  0  0  0  0
   19.6230   24.8997   31.4229 C   0  0  0  0  0  0  0  0  0  0  0  0
   19.4644   23.9961   30.5558 O   0  0  0  0  0  0  0  0  0  0  0  0
   20.8904   25.5797   31.5264 N   0  0  0  0  0  0  0  0  0  0  0  0
   22.0680   24.9993   30.8742 C   0  0  0  0  0  0  0  0  0  0  0  0
   21.0119   26.8514   32.2504 C   0  0  0  0  0  0  0  0  0  0  0  0
   21.4566   26.5944   33.6696 C   0  0  0  0  0  0  0  0  0  0  0  0
   22.8328   26.5670   33.9492 C   0  0  0  0  0  0  0  0  0  0  0  0
   17.2042   25.4492   31.6787 C   0  0  0  0  0  0  0  0  0  0  0  0
  1  2  1  0
  2  3  2  0
  2  4  1  0
  4  5  2  0
  5  6  1  0
  6  7  2  0
  7  8  1  0
  8  9  2  0
  9 10  1  0
 10 11  2  0
 11 12  1  0
 12 13  2  0
 13 14  1  0
  1 15  1  0
 15 16  2  0
 16 17  1  0
 17 18  2  0
 18 19  1  0
 19 20  1  0
 20 21  1  0
 21 22  1  0
 22 23  2  0
 22 24  1  0
 24 25  1  0
 24 26  1  0
 26 27  1  0
 27 28  2  0
 21 29  1  0
 13  4  1  0
 28 15  1  0
 12  7  1  0
 27 18  1  0
M  END
>  <AAScore>  (1) 
257.0749632559361

>  <RootName>  (1) 
./4ZLY/04_DeltaGEst/trajectory_02/rank_00/lead_0488

$$$$
