confid_2
     RDKit          3D

 29 32  0  0  0  0  0  0  0  0999 V2000
   24.6900   26.1200   35.5300 N   0  0  0  0  0  0  0  0  0  0  0  0
   25.6600   25.6700   34.6600 C   0  0  0  0  0  0  0  0  0  0  0  0
   25.2400   25.0100   33.7200 O   0  0  0  0  0  0  0  0  0  0  0  0
   27.0300   26.2200   34.8800 C   0  0  0  0  0  0  0  0  0  0  0  0
   27.3500   26.7300   36.0700 N   0  0  0  0  0  0  0  0  0  0  0  0
   28.5700   27.1800   36.3300 N   0  0  0  0  0  0  0  0  0  0  0  0
   29.5300   27.1100   35.3900 C   0  0  0  0  0  0  0  0  0  0  0  0
   30.8300   27.5700   35.6500 C   0  0  0  0  0  0  0  0  0  0  0  0
   31.8500   27.5400   34.6900 C   0  0  0  0  0  0  0  0  0  0  0  0
   31.5100   27.1200   33.4000 C   0  0  0  0  0  0  0  0  0  0  0  0
   30.2200   26.6300   33.1100 C   0  0  0  0  0  0  0  0  0  0  0  0
   29.2400   26.6600   34.1000 C   0  0  0  0  0  0  0  0  0  0  0  0
   27.9300   26.2600   33.8100 C   0  0  0  0  0  0  0  0  0  0  0  0
   27.5200   25.7100   32.6100 N   0  0  0  0  0  0  0  0  0  0  0  0
   31.1430   28.0775   36.9557 N   0  0  0  0  0  0  0  0  0  0  0  0
   32.0170   27.2952   37.8409 C   0  0  0  0  0  0  0  0  0  0  0  0
   32.2342   28.0126   39.1751 C   0  0  0  0  0  0  0  0  0  0  0  0
   30.9493   28.5225   39.6723 N   0  0  0  0  0  0  0  0  0  0  0  0
   30.5106   28.2665   41.0176 C   0  0  0  0  0  0  0  0  0  0  0  0
   29.9421   29.1841   41.6704 O   0  0  0  0  0  0  0  0  0  0  0  0
   30.6925   26.9159   41.6552 C   0  0  0  0  0  0  0  0  0  0  0  0
   29.3939   26.4258   42.2375 C   0  0  0  0  0  0  0  0  0  0  0  0
   28.4052   25.8853   41.3978 C   0  0  0  0  0  0  0  0  0  0  0  0
   27.1888   25.4491   41.9323 C   0  0  0  0  0  0  0  0  0  0  0  0
   26.9479   25.5572   43.3049 C   0  0  0  0  0  0  0  0  0  0  0  0
   27.9220   26.1040   44.1450 C   0  0  0  0  0  0  0  0  0  0  0  0
   29.1398   26.5420   43.6147 C   0  0  0  0  0  0  0  0  0  0  0  0
   30.0960   29.3362   38.7936 C   0  0  0  0  0  0  0  0  0  0  0  0
   30.6502   29.3990   37.3643 C   0  0  0  0  0  0  0  0  0  0  0  0
  1  2  1  0
  2  3  2  0
  2  4  1  0
  4  5  2  0
  5  6  1  0
  6  7  2  0
  7  8  1  0
  8  9  2  0
  9 10  1  0
 10 11  2  0
 11 12  1  0
 12 13  2  0
 13 14  1  0
  8 15  1  0
 15 16  1  0
 16 17  1  0
 17 18  1  0
 18 19  1  0
 19 20  2  0
 19 21  1  0
 21 22  1  0
 22 23  2  0
 23 24  1  0
 24 25  2  0
 25 26  1  0
 26 27  2  0
 18 28  1  0
 28 29  1  0
 13  4  1  0
 29 15  1  0
 12  7  1  0
 27 22  1  0
M  END
>  <AAScore>  (1) 
163.1974147998211

>  <RootName>  (1) 
./4ZLY/04_DeltaGEst/trajectory_02/rank_01/lead_0477

$$$$
