confid_5
     RDKit          3D

 27 30  0  0  0  0  0  0  0  0999 V2000
   24.4800   26.1000   36.1300 N   0  0  0  0  0  0  0  0  0  0  0  0
   25.2500   26.2500   34.9900 C   0  0  0  0  0  0  0  0  0  0  0  0
   24.7400   25.7600   33.9900 O   0  0  0  0  0  0  0  0  0  0  0  0
   26.5900   26.8900   34.9600 C   0  0  0  0  0  0  0  0  0  0  0  0
   27.0600   27.2400   36.1600 N   0  0  0  0  0  0  0  0  0  0  0  0
   28.3000   27.7100   36.2400 N   0  0  0  0  0  0  0  0  0  0  0  0
   29.0500   27.9600   35.1500 C   0  0  0  0  0  0  0  0  0  0  0  0
   30.3400   28.4900   35.2600 C   0  0  0  0  0  0  0  0  0  0  0  0
   31.1100   28.8200   34.1400 C   0  0  0  0  0  0  0  0  0  0  0  0
   30.5200   28.6700   32.8800 C   0  0  0  0  0  0  0  0  0  0  0  0
   29.2900   28.0200   32.7700 C   0  0  0  0  0  0  0  0  0  0  0  0
   28.5200   27.7100   33.8900 C   0  0  0  0  0  0  0  0  0  0  0  0
   27.2700   27.0800   33.7600 C   0  0  0  0  0  0  0  0  0  0  0  0
   26.7500   26.8800   32.4900 N   0  0  0  0  0  0  0  0  0  0  0  0
   23.4775   25.0838   36.3330 C   0  0  0  0  0  0  0  0  0  0  0  0
   23.3773   24.0223   35.4886 N   0  0  0  0  0  0  0  0  0  0  0  0
   22.4616   23.0243   35.6440 C   0  0  0  0  0  0  0  0  0  0  0  0
   22.5120   21.9083   34.6352 C   0  0  0  0  0  0  0  0  0  0  0  0
   21.4954   22.1068   33.4981 C   0  0  0  0  0  0  0  0  0  0  0  0
   20.2760   21.2956   33.6960 N   0  0  0  0  0  0  0  0  0  0  0  0
   19.4853   21.2873   32.4526 C   0  0  0  0  0  0  0  0  0  0  0  0
   19.4549   21.8060   34.8149 C   0  0  0  0  0  0  0  0  0  0  0  0
   19.9283   21.2037   36.1459 C   0  0  0  0  0  0  0  0  0  0  0  0
   20.5098   22.1829   37.0039 O   0  0  0  0  0  0  0  0  0  0  0  0
   21.5460   23.0952   36.7310 C   0  0  0  0  0  0  0  0  0  0  0  0
   21.6667   24.1654   37.6251 C   0  0  0  0  0  0  0  0  0  0  0  0
   22.6244   25.1576   37.4341 C   0  0  0  0  0  0  0  0  0  0  0  0
  1  2  1  0
  2  3  2  0
  2  4  1  0
  4  5  2  0
  5  6  1  0
  6  7  2  0
  7  8  1  0
  8  9  2  0
  9 10  1  0
 10 11  2  0
 11 12  1  0
 12 13  2  0
 13 14  1  0
  1 15  1  0
 15 16  2  0
 16 17  1  0
 17 18  1  0
 18 19  1  0
 19 20  1  0
 20 21  1  0
 20 22  1  0
 22 23  1  0
 23 24  1  0
 24 25  1  0
 25 26  1  0
 26 27  2  0
 13  4  1  0
 27 15  1  0
 12  7  1  0
 25 17  2  0
M  END
>  <AAScore>  (1) 
209.55097462352185

>  <RootName>  (1) 
./4ZLY/04_DeltaGEst/trajectory_00/rank_01/lead_0263

$$$$
