confid_16
     RDKit          3D

 29 32  0  0  0  0  0  0  0  0999 V2000
   24.2000   26.2400   35.6900 N   0  0  0  0  0  0  0  0  0  0  0  0
   24.8500   26.2800   34.4800 C   0  0  0  0  0  0  0  0  0  0  0  0
   24.3100   25.7400   33.5400 O   0  0  0  0  0  0  0  0  0  0  0  0
   26.1800   26.9700   34.4700 C   0  0  0  0  0  0  0  0  0  0  0  0
   26.6500   27.6000   35.5500 N   0  0  0  0  0  0  0  0  0  0  0  0
   27.7900   28.2700   35.6200 N   0  0  0  0  0  0  0  0  0  0  0  0
   28.5400   28.3000   34.5100 C   0  0  0  0  0  0  0  0  0  0  0  0
   29.7700   28.9400   34.5600 C   0  0  0  0  0  0  0  0  0  0  0  0
   30.7000   28.8900   33.5000 C   0  0  0  0  0  0  0  0  0  0  0  0
   30.3700   28.1400   32.3700 C   0  0  0  0  0  0  0  0  0  0  0  0
   29.1200   27.5200   32.2800 C   0  0  0  0  0  0  0  0  0  0  0  0
   28.2100   27.6100   33.3300 C   0  0  0  0  0  0  0  0  0  0  0  0
   26.9700   26.9700   33.3100 C   0  0  0  0  0  0  0  0  0  0  0  0
   26.5300   26.2400   32.2200 N   0  0  0  0  0  0  0  0  0  0  0  0
   23.2660   25.2220   36.1098 C   0  0  0  0  0  0  0  0  0  0  0  0
   22.4392   25.5454   37.0656 N   0  0  0  0  0  0  0  0  0  0  0  0
   21.3878   24.8683   37.7774 C   0  0  0  0  0  0  0  0  0  0  0  0
   20.9564   23.6134   37.5882 C   0  0  0  0  0  0  0  0  0  0  0  0
   19.9237   23.0021   38.4612 C   0  0  0  0  0  0  0  0  0  0  0  0
   19.7190   21.6777   38.0236 O   0  0  0  0  0  0  0  0  0  0  0  0
   20.8518   21.3129   37.2552 C   0  0  2  0  0  0  0  0  0  0  0  0
   20.4001   20.2500   36.2315 C   0  0  0  0  0  0  0  0  0  0  0  0
   21.8803   20.6656   38.2329 C   0  0  0  0  0  0  0  0  0  0  0  0
   22.9189   20.0185   37.5240 O   0  0  0  0  0  0  0  0  0  0  0  0
   23.9388   19.6408   38.4194 C   0  0  0  0  0  0  0  0  0  0  0  0
   21.3641   22.6328   36.5715 C   0  0  1  0  0  0  0  0  0  0  0  0
   20.6203   22.9118   35.4051 O   0  0  0  0  0  0  0  0  0  0  0  0
   22.8850   22.6843   36.2987 C   0  0  0  0  0  0  0  0  0  0  0  0
   23.2863   23.8723   35.4268 C   0  0  0  0  0  0  0  0  0  0  0  0
  1  2  1  0
  2  3  2  0
  2  4  1  0
  4  5  2  0
  5  6  1  0
  6  7  2  0
  7  8  1  0
  8  9  2  0
  9 10  1  0
 10 11  2  0
 11 12  1  0
 12 13  2  0
 13 14  1  0
  1 15  1  0
 15 16  2  0
 16 17  1  0
 17 18  2  0
 18 19  1  0
 19 20  1  0
 20 21  1  0
 21 22  1  6
 21 23  1  0
 23 24  1  0
 24 25  1  0
 21 26  1  0
 26 27  1  6
 26 28  1  0
 28 29  1  0
 13  4  1  0
 29 15  1  0
 12  7  1  0
 26 18  1  0
M  END
>  <AAScore>  (1) 
2325.2388846818417

>  <RootName>  (1) 
./4ZLY/04_DeltaGEst/trajectory_04/rank_00/lead_0361

$$$$
