confid_9
     RDKit          3D

 29 33  0  0  0  0  0  0  0  0999 V2000
   24.2000   26.2400   35.6900 N   0  0  0  0  0  0  0  0  0  0  0  0
   24.8500   26.2800   34.4800 C   0  0  0  0  0  0  0  0  0  0  0  0
   24.3100   25.7400   33.5400 O   0  0  0  0  0  0  0  0  0  0  0  0
   26.1800   26.9700   34.4700 C   0  0  0  0  0  0  0  0  0  0  0  0
   26.6500   27.6000   35.5500 N   0  0  0  0  0  0  0  0  0  0  0  0
   27.7900   28.2700   35.6200 N   0  0  0  0  0  0  0  0  0  0  0  0
   28.5400   28.3000   34.5100 C   0  0  0  0  0  0  0  0  0  0  0  0
   29.7700   28.9400   34.5600 C   0  0  0  0  0  0  0  0  0  0  0  0
   30.7000   28.8900   33.5000 C   0  0  0  0  0  0  0  0  0  0  0  0
   30.3700   28.1400   32.3700 C   0  0  0  0  0  0  0  0  0  0  0  0
   29.1200   27.5200   32.2800 C   0  0  0  0  0  0  0  0  0  0  0  0
   28.2100   27.6100   33.3300 C   0  0  0  0  0  0  0  0  0  0  0  0
   26.9700   26.9700   33.3100 C   0  0  0  0  0  0  0  0  0  0  0  0
   26.5300   26.2400   32.2200 N   0  0  0  0  0  0  0  0  0  0  0  0
   23.2097   25.2588   36.0513 C   0  0  0  0  0  0  0  0  0  0  0  0
   23.1019   24.1520   35.3648 N   0  0  0  0  0  0  0  0  0  0  0  0
   22.1909   23.0871   35.6646 C   0  0  0  0  0  0  0  0  0  0  0  0
   20.8837   23.3079   35.7427 C   0  0  0  0  0  0  0  0  0  0  0  0
   19.6371   22.6101   36.1971 C   0  0  0  0  0  0  0  0  0  0  0  0
   18.7972   23.7015   35.9884 O   0  0  0  0  0  0  0  0  0  0  0  0
   19.8884   24.4083   35.4900 C   0  0  1  0  0  0  0  0  0  0  0  0
   20.1308   25.7335   36.2428 C   0  0  0  0  0  0  0  0  0  0  0  0
   21.0623   25.6238   37.4213 C   0  0  0  0  0  0  0  0  0  0  0  0
   20.6323   25.7403   38.7515 C   0  0  0  0  0  0  0  0  0  0  0  0
   21.6814   25.6792   39.6649 C   0  0  0  0  0  0  0  0  0  0  0  0
   23.1308   25.4789   38.8397 S   0  0  0  0  0  0  0  0  0  0  0  0
   22.4461   25.4592   37.3030 C   0  0  0  0  0  0  0  0  0  0  0  0
   21.5828   25.7714   41.0564 O   0  0  0  0  0  0  0  0  0  0  0  0
   20.3448   25.9424   41.7360 C   0  0  0  0  0  0  0  0  0  0  0  0
  1  2  1  0
  2  3  2  0
  2  4  1  0
  4  5  2  0
  5  6  1  0
  6  7  2  0
  7  8  1  0
  8  9  2  0
  9 10  1  0
 10 11  2  0
 11 12  1  0
 12 13  2  0
 13 14  1  0
  1 15  1  0
 15 16  2  0
 16 17  1  0
 17 18  2  0
 18 19  1  0
 19 20  1  0
 20 21  1  0
 21 22  1  1
 22 23  1  0
 23 24  1  0
 24 25  2  0
 25 26  1  0
 26 27  1  0
 25 28  1  0
 28 29  1  0
 13  4  1  0
 27 15  1  0
 12  7  1  0
 21 18  1  0
 27 23  2  0
M  END
>  <AAScore>  (1) 
5236.309212433307

>  <RootName>  (1) 
./4ZLY/04_DeltaGEst/trajectory_04/rank_00/lead_0315

$$$$
