confid_18
     RDKit          3D

 30 34  0  0  0  0  0  0  0  0999 V2000
   25.3300   26.2600   34.7600 N   0  0  0  0  0  0  0  0  0  0  0  0
   26.1200   25.9200   33.6900 C   0  0  0  0  0  0  0  0  0  0  0  0
   25.6300   25.1100   32.9400 O   0  0  0  0  0  0  0  0  0  0  0  0
   27.5200   26.3800   33.4600 C   0  0  0  0  0  0  0  0  0  0  0  0
   28.1600   26.6300   34.6100 N   0  0  0  0  0  0  0  0  0  0  0  0
   29.4800   26.8500   34.5700 N   0  0  0  0  0  0  0  0  0  0  0  0
   30.1900   26.7800   33.4400 C   0  0  0  0  0  0  0  0  0  0  0  0
   31.5600   27.0500   33.5000 C   0  0  0  0  0  0  0  0  0  0  0  0
   32.2700   27.2400   32.3100 C   0  0  0  0  0  0  0  0  0  0  0  0
   31.6100   27.2500   31.0800 C   0  0  0  0  0  0  0  0  0  0  0  0
   30.2700   26.8700   31.0600 C   0  0  0  0  0  0  0  0  0  0  0  0
   29.5100   26.6900   32.2300 C   0  0  0  0  0  0  0  0  0  0  0  0
   28.1400   26.4100   32.2000 C   0  0  0  0  0  0  0  0  0  0  0  0
   27.4300   26.1300   31.0500 N   0  0  0  0  0  0  0  0  0  0  0  0
   23.9078   26.0375   34.8397 C   0  0  0  0  0  0  0  0  0  0  0  0
   23.2183   26.0749   33.7286 N   0  0  0  0  0  0  0  0  0  0  0  0
   21.8352   25.9515   33.3568 C   0  0  0  0  0  0  0  0  0  0  0  0
   20.8200   26.2889   34.1403 C   0  0  0  0  0  0  0  0  0  0  0  0
   19.4716   26.9213   33.9404 C   0  0  0  0  0  0  0  0  0  0  0  0
   19.2835   27.2375   35.2825 O   0  0  0  0  0  0  0  0  0  0  0  0
   20.4608   26.5530   35.5642 C   0  0  2  0  0  0  0  0  0  0  0  0
   21.5227   27.3899   36.2733 C   0  0  0  0  0  0  0  0  0  0  0  0
   22.4534   26.4088   36.9275 C   0  0  0  0  0  0  0  0  0  0  0  0
   22.2084   26.0681   38.2713 C   0  0  0  0  0  0  0  0  0  0  0  0
   22.8951   25.0196   38.8822 C   0  0  0  0  0  0  0  0  0  0  0  0
   23.8189   24.2603   38.1501 C   0  0  0  0  0  0  0  0  0  0  0  0
   24.5291   23.1899   38.7145 O   0  0  0  0  0  0  0  0  0  0  0  0
   24.4054   22.7670   40.0694 C   0  0  0  0  0  0  0  0  0  0  0  0
   24.0520   24.5787   36.8105 C   0  0  0  0  0  0  0  0  0  0  0  0
   23.3816   25.6423   36.1755 C   0  0  0  0  0  0  0  0  0  0  0  0
  1  2  1  0
  2  3  2  0
  2  4  1  0
  4  5  2  0
  5  6  1  0
  6  7  2  0
  7  8  1  0
  8  9  2  0
  9 10  1  0
 10 11  2  0
 11 12  1  0
 12 13  2  0
 13 14  1  0
  1 15  1  0
 15 16  2  0
 16 17  1  0
 17 18  2  0
 18 19  1  0
 19 20  1  0
 20 21  1  0
 21 22  1  6
 22 23  1  0
 23 24  2  0
 24 25  1  0
 25 26  2  0
 26 27  1  0
 27 28  1  0
 26 29  1  0
 29 30  2  0
 13  4  1  0
 30 15  1  0
 12  7  1  0
 21 18  1  0
 30 23  1  0
M  END
>  <AAScore>  (1) 
480.60901793690135

>  <RootName>  (1) 
./4ZLY/04_DeltaGEst/trajectory_03/rank_00/lead_0483

$$$$
