confid_18
     RDKit          3D

 29 33  0  0  0  0  0  0  0  0999 V2000
   24.2000   26.2400   35.6900 N   0  0  0  0  0  0  0  0  0  0  0  0
   24.8500   26.2800   34.4800 C   0  0  0  0  0  0  0  0  0  0  0  0
   24.3100   25.7400   33.5400 O   0  0  0  0  0  0  0  0  0  0  0  0
   26.1800   26.9700   34.4700 C   0  0  0  0  0  0  0  0  0  0  0  0
   26.6500   27.6000   35.5500 N   0  0  0  0  0  0  0  0  0  0  0  0
   27.7900   28.2700   35.6200 N   0  0  0  0  0  0  0  0  0  0  0  0
   28.5400   28.3000   34.5100 C   0  0  0  0  0  0  0  0  0  0  0  0
   29.7700   28.9400   34.5600 C   0  0  0  0  0  0  0  0  0  0  0  0
   30.7000   28.8900   33.5000 C   0  0  0  0  0  0  0  0  0  0  0  0
   30.3700   28.1400   32.3700 C   0  0  0  0  0  0  0  0  0  0  0  0
   29.1200   27.5200   32.2800 C   0  0  0  0  0  0  0  0  0  0  0  0
   28.2100   27.6100   33.3300 C   0  0  0  0  0  0  0  0  0  0  0  0
   26.9700   26.9700   33.3100 C   0  0  0  0  0  0  0  0  0  0  0  0
   26.5300   26.2400   32.2200 N   0  0  0  0  0  0  0  0  0  0  0  0
   30.1424   29.6575   35.7463 N   0  0  0  0  0  0  0  0  0  0  0  0
   30.8852   28.9415   36.7940 C   0  0  0  0  0  0  0  0  0  0  0  0
   30.4918   29.4024   38.2023 C   0  0  0  0  0  0  0  0  0  0  0  0
   31.1139   30.7264   38.5551 C   0  0  0  0  0  0  0  0  0  0  0  0
   31.5863   31.1211   39.7968 C   0  0  0  0  0  0  0  0  0  0  0  0
   32.0724   32.3743   39.7199 N   0  0  0  0  0  0  0  0  0  0  0  0
   31.8906   32.8048   38.4800 N   0  0  0  0  0  0  0  0  0  0  0  0
   32.3892   34.0991   38.0163 C   0  0  0  0  0  0  0  0  0  0  0  0
   33.7517   33.9174   37.3366 C   0  0  0  0  0  0  0  0  0  0  0  0
   33.7735   34.0426   35.8197 C   0  0  0  0  0  0  0  0  0  0  0  0
   34.2971   35.1781   36.6830 C   0  0  0  0  0  0  0  0  0  0  0  0
   31.2931   31.8381   37.7418 C   0  0  0  0  0  0  0  0  0  0  0  0
   30.9924   31.9337   36.2655 C   0  0  0  0  0  0  0  0  0  0  0  0
   29.7874   31.0803   35.8518 C   0  0  0  0  0  0  0  0  0  0  0  0
   31.6361   30.2891   41.0361 C   0  0  0  0  0  0  0  0  0  0  0  0
  1  2  1  0
  2  3  2  0
  2  4  1  0
  4  5  2  0
  5  6  1  0
  6  7  2  0
  7  8  1  0
  8  9  2  0
  9 10  1  0
 10 11  2  0
 11 12  1  0
 12 13  2  0
 13 14  1  0
  8 15  1  0
 15 16  1  0
 16 17  1  0
 17 18  1  0
 18 19  1  0
 19 20  2  0
 20 21  1  0
 21 22  1  0
 22 23  1  0
 23 24  1  0
 24 25  1  0
 21 26  1  0
 26 27  1  0
 27 28  1  0
 19 29  1  0
 13  4  1  0
 28 15  1  0
 12  7  1  0
 26 18  2  0
 25 23  1  0
M  END
>  <AAScore>  (1) 
-7.276905469332647

>  <RootName>  (1) 
./4ZLY/04_DeltaGEst/trajectory_04/rank_01/lead_0379

$$$$
