confid_8
     RDKit          3D

 27 30  0  0  0  0  0  0  0  0999 V2000
   24.2000   26.2400   35.6900 N   0  0  0  0  0  0  0  0  0  0  0  0
   24.8500   26.2800   34.4800 C   0  0  0  0  0  0  0  0  0  0  0  0
   24.3100   25.7400   33.5400 O   0  0  0  0  0  0  0  0  0  0  0  0
   26.1800   26.9700   34.4700 C   0  0  0  0  0  0  0  0  0  0  0  0
   26.6500   27.6000   35.5500 N   0  0  0  0  0  0  0  0  0  0  0  0
   27.7900   28.2700   35.6200 N   0  0  0  0  0  0  0  0  0  0  0  0
   28.5400   28.3000   34.5100 C   0  0  0  0  0  0  0  0  0  0  0  0
   29.7700   28.9400   34.5600 C   0  0  0  0  0  0  0  0  0  0  0  0
   30.7000   28.8900   33.5000 C   0  0  0  0  0  0  0  0  0  0  0  0
   30.3700   28.1400   32.3700 C   0  0  0  0  0  0  0  0  0  0  0  0
   29.1200   27.5200   32.2800 C   0  0  0  0  0  0  0  0  0  0  0  0
   28.2100   27.6100   33.3300 C   0  0  0  0  0  0  0  0  0  0  0  0
   26.9700   26.9700   33.3100 C   0  0  0  0  0  0  0  0  0  0  0  0
   26.5300   26.2400   32.2200 N   0  0  0  0  0  0  0  0  0  0  0  0
   23.2043   25.2670   36.0522 C   0  0  0  0  0  0  0  0  0  0  0  0
   22.9671   24.1795   35.2710 N   0  0  0  0  0  0  0  0  0  0  0  0
   22.0360   23.2555   35.6165 C   0  0  0  0  0  0  0  0  0  0  0  0
   21.3079   23.3975   36.8027 C   0  0  0  0  0  0  0  0  0  0  0  0
   20.2277   22.3969   37.1351 C   0  0  0  0  0  0  0  0  0  0  0  0
   19.7590   22.4770   38.5632 C   0  0  0  0  0  0  0  0  0  0  0  0
   18.8666   21.7336   38.9410 O   0  0  0  0  0  0  0  0  0  0  0  0
   20.4069   23.4151   39.5447 C   0  0  0  0  0  0  0  0  0  0  0  0
   20.7813   24.7672   38.8895 C   0  0  0  0  0  0  0  0  0  0  0  0
   21.6181   25.5802   39.9020 C   0  0  0  0  0  0  0  0  0  0  0  0
   19.5092   25.5664   38.5400 C   0  0  0  0  0  0  0  0  0  0  0  0
   21.5749   24.5191   37.6150 C   0  0  0  0  0  0  0  0  0  0  0  0
   22.5070   25.4250   37.2074 N   0  0  0  0  0  0  0  0  0  0  0  0
  1  2  1  0
  2  3  2  0
  2  4  1  0
  4  5  2  0
  5  6  1  0
  6  7  2  0
  7  8  1  0
  8  9  2  0
  9 10  1  0
 10 11  2  0
 11 12  1  0
 12 13  2  0
 13 14  1  0
  1 15  1  0
 15 16  2  0
 16 17  1  0
 17 18  2  0
 18 19  1  0
 19 20  1  0
 20 21  2  0
 20 22  1  0
 22 23  1  0
 23 24  1  0
 23 25  1  0
 23 26  1  0
 26 27  2  0
 13  4  1  0
 27 15  1  0
 12  7  1  0
 26 18  1  0
M  END
>  <AAScore>  (1) 
1162.529213291568

>  <RootName>  (1) 
./4ZLY/04_DeltaGEst/trajectory_04/rank_00/lead_0146

$$$$
