confid_9
     RDKit          3D

 30 34  0  0  0  0  0  0  0  0999 V2000
   25.3300   26.2600   34.7600 N   0  0  0  0  0  0  0  0  0  0  0  0
   26.1200   25.9200   33.6900 C   0  0  0  0  0  0  0  0  0  0  0  0
   25.6300   25.1100   32.9400 O   0  0  0  0  0  0  0  0  0  0  0  0
   27.5200   26.3800   33.4600 C   0  0  0  0  0  0  0  0  0  0  0  0
   28.1600   26.6300   34.6100 N   0  0  0  0  0  0  0  0  0  0  0  0
   29.4800   26.8500   34.5700 N   0  0  0  0  0  0  0  0  0  0  0  0
   30.1900   26.7800   33.4400 C   0  0  0  0  0  0  0  0  0  0  0  0
   31.5600   27.0500   33.5000 C   0  0  0  0  0  0  0  0  0  0  0  0
   32.2700   27.2400   32.3100 C   0  0  0  0  0  0  0  0  0  0  0  0
   31.6100   27.2500   31.0800 C   0  0  0  0  0  0  0  0  0  0  0  0
   30.2700   26.8700   31.0600 C   0  0  0  0  0  0  0  0  0  0  0  0
   29.5100   26.6900   32.2300 C   0  0  0  0  0  0  0  0  0  0  0  0
   28.1400   26.4100   32.2000 C   0  0  0  0  0  0  0  0  0  0  0  0
   27.4300   26.1300   31.0500 N   0  0  0  0  0  0  0  0  0  0  0  0
   26.4687   27.1013   30.5173 C   0  0  0  0  0  0  0  0  0  0  0  0
   26.6104   27.1723   28.9961 C   0  0  0  0  0  0  0  0  0  0  0  0
   26.4962   25.8141   28.4276 N   0  0  0  0  0  0  0  0  0  0  0  0
   26.3641   25.8193   26.9534 C   0  0  0  0  0  0  0  0  0  0  0  0
   27.5819   26.3511   26.2415 C   0  0  0  0  0  0  0  0  0  0  0  0
   27.8552   27.6933   25.9693 C   0  0  0  0  0  0  0  0  0  0  0  0
   29.0321   27.7303   25.3335 N   0  0  0  0  0  0  0  0  0  0  0  0
   29.8956   28.6939   24.6890 C   0  0  0  0  0  0  0  0  0  0  0  0
   31.0485   27.7731   24.1266 C   0  0  0  0  0  0  0  0  0  0  0  0
   31.1583   27.8825   22.6004 C   0  0  0  0  0  0  0  0  0  0  0  0
   32.3943   28.1024   24.7869 C   0  0  0  0  0  0  0  0  0  0  0  0
   30.6625   26.4315   24.4833 O   0  0  0  0  0  0  0  0  0  0  0  0
   29.4797   26.5132   25.1826 C   0  0  0  0  0  0  0  0  0  0  0  0
   28.6349   25.5799   25.7313 C   0  0  0  0  0  0  0  0  0  0  0  0
   27.5960   24.9491   28.8996 C   0  0  0  0  0  0  0  0  0  0  0  0
   27.5310   24.8061   30.4226 C   0  0  0  0  0  0  0  0  0  0  0  0
  1  2  1  0
  2  3  2  0
  2  4  1  0
  4  5  2  0
  5  6  1  0
  6  7  2  0
  7  8  1  0
  8  9  2  0
  9 10  1  0
 10 11  2  0
 11 12  1  0
 12 13  2  0
 13 14  1  0
 14 15  1  0
 15 16  1  0
 16 17  1  0
 17 18  1  0
 18 19  1  0
 19 20  2  0
 20 21  1  0
 21 22  1  0
 22 23  1  0
 23 24  1  0
 23 25  1  0
 23 26  1  0
 26 27  1  0
 27 28  2  0
 17 29  1  0
 29 30  1  0
 13  4  1  0
 30 14  1  0
 12  7  1  0
 28 19  1  0
 27 21  1  0
M  END
>  <AAScore>  (1) 
1.3133999653879829

>  <RootName>  (1) 
./4ZLY/04_DeltaGEst/trajectory_03/rank_01/lead_0189

$$$$
