confid_12
     RDKit          3D

 27 31  0  0  0  0  0  0  0  0999 V2000
   25.3300   26.2600   34.7600 N   0  0  0  0  0  0  0  0  0  0  0  0
   26.1200   25.9200   33.6900 C   0  0  0  0  0  0  0  0  0  0  0  0
   25.6300   25.1100   32.9400 O   0  0  0  0  0  0  0  0  0  0  0  0
   27.5200   26.3800   33.4600 C   0  0  0  0  0  0  0  0  0  0  0  0
   28.1600   26.6300   34.6100 N   0  0  0  0  0  0  0  0  0  0  0  0
   29.4800   26.8500   34.5700 N   0  0  0  0  0  0  0  0  0  0  0  0
   30.1900   26.7800   33.4400 C   0  0  0  0  0  0  0  0  0  0  0  0
   31.5600   27.0500   33.5000 C   0  0  0  0  0  0  0  0  0  0  0  0
   32.2700   27.2400   32.3100 C   0  0  0  0  0  0  0  0  0  0  0  0
   31.6100   27.2500   31.0800 C   0  0  0  0  0  0  0  0  0  0  0  0
   30.2700   26.8700   31.0600 C   0  0  0  0  0  0  0  0  0  0  0  0
   29.5100   26.6900   32.2300 C   0  0  0  0  0  0  0  0  0  0  0  0
   28.1400   26.4100   32.2000 C   0  0  0  0  0  0  0  0  0  0  0  0
   27.4300   26.1300   31.0500 N   0  0  0  0  0  0  0  0  0  0  0  0
   23.9246   25.9787   34.9150 C   0  0  0  0  0  0  0  0  0  0  0  0
   23.1993   25.4097   33.8858 N   0  0  0  0  0  0  0  0  0  0  0  0
   21.8980   25.2015   34.1487 C   0  0  0  0  0  0  0  0  0  0  0  0
   20.6370   24.7125   33.6789 C   0  0  0  0  0  0  0  0  0  0  0  0
   19.9663   25.0174   34.8900 N   0  0  0  0  0  0  0  0  0  0  0  0
   18.6216   24.8936   35.4269 C   0  0  0  0  0  0  0  0  0  0  0  0
   18.6395   23.9581   36.6397 C   0  0  0  0  0  0  0  0  0  0  0  0
   18.5620   22.4739   36.3123 C   0  0  0  0  0  0  0  0  0  0  0  0
   17.3514   23.1903   36.8928 C   0  0  0  0  0  0  0  0  0  0  0  0
   21.2643   25.5204   35.3439 C   0  0  0  0  0  0  0  0  0  0  0  0
   21.9732   26.1022   36.3674 C   0  0  0  0  0  0  0  0  0  0  0  0
   23.3104   26.3084   36.1182 N   0  0  0  0  0  0  0  0  0  0  0  0
   21.3632   26.4274   37.6901 C   0  0  0  0  0  0  0  0  0  0  0  0
  1  2  1  0
  2  3  2  0
  2  4  1  0
  4  5  2  0
  5  6  1  0
  6  7  2  0
  7  8  1  0
  8  9  2  0
  9 10  1  0
 10 11  2  0
 11 12  1  0
 12 13  2  0
 13 14  1  0
  1 15  1  0
 15 16  2  0
 16 17  1  0
 17 18  1  0
 18 19  1  0
 19 20  1  0
 20 21  1  0
 21 22  1  0
 22 23  1  0
 19 24  1  0
 24 25  1  0
 25 26  2  0
 25 27  1  0
 13  4  1  0
 26 15  1  0
 12  7  1  0
 24 17  2  0
 23 21  1  0
M  END
>  <AAScore>  (1) 
3172.644417444142

>  <RootName>  (1) 
./4ZLY/04_DeltaGEst/trajectory_03/rank_00/lead_0177

$$$$
