confid_9
     RDKit          3D

 29 32  0  0  0  0  0  0  0  0999 V2000
   24.5500   26.3900   36.2500 N   0  0  0  0  0  0  0  0  0  0  0  0
   25.6000   26.1300   35.4000 C   0  0  0  0  0  0  0  0  0  0  0  0
   25.4300   25.4300   34.4200 O   0  0  0  0  0  0  0  0  0  0  0  0
   26.9800   26.6300   35.7100 C   0  0  0  0  0  0  0  0  0  0  0  0
   27.3200   26.8200   36.9800 N   0  0  0  0  0  0  0  0  0  0  0  0
   28.4700   27.4000   37.3100 N   0  0  0  0  0  0  0  0  0  0  0  0
   29.4000   27.6300   36.3700 C   0  0  0  0  0  0  0  0  0  0  0  0
   30.6600   28.0500   36.8000 C   0  0  0  0  0  0  0  0  0  0  0  0
   31.5700   28.3600   35.7800 C   0  0  0  0  0  0  0  0  0  0  0  0
   31.3700   28.1000   34.4300 C   0  0  0  0  0  0  0  0  0  0  0  0
   30.1200   27.5900   34.0500 C   0  0  0  0  0  0  0  0  0  0  0  0
   29.1500   27.3400   35.0300 C   0  0  0  0  0  0  0  0  0  0  0  0
   27.8800   26.8900   34.6600 C   0  0  0  0  0  0  0  0  0  0  0  0
   27.4800   26.6100   33.3700 N   0  0  0  0  0  0  0  0  0  0  0  0
   23.3882   25.5536   36.4886 C   0  0  0  0  0  0  0  0  0  0  0  0
   22.4045   26.0205   37.2021 N   0  0  0  0  0  0  0  0  0  0  0  0
   22.0359   27.3968   37.0782 C   0  0  0  0  0  0  0  0  0  0  0  0
   21.3616   27.7393   35.9606 C   0  0  0  0  0  0  0  0  0  0  0  0
   20.7856   26.6383   35.1075 C   0  0  0  0  0  0  0  0  0  0  0  0
   21.8228   26.3007   34.1323 N   0  0  0  0  0  0  0  0  0  0  0  0
   22.4162   27.4066   33.3489 C   0  0  0  0  0  0  0  0  0  0  0  0
   21.8550   28.8018   33.7605 C   0  0  0  0  0  0  0  0  0  0  0  0
   21.7203   28.9339   35.2319 N   0  0  0  0  0  0  0  0  0  0  0  0
   21.9912   30.2118   35.9201 C   0  0  0  0  0  0  0  0  0  0  0  0
   23.4925   30.5225   35.9172 C   0  0  0  0  0  0  0  0  0  0  0  0
   21.1851   31.3579   35.2949 C   0  0  0  0  0  0  0  0  0  0  0  0
   22.5315   25.0402   34.2069 C   0  0  0  0  0  0  0  0  0  0  0  0
   22.7880   24.4210   33.1393 O   0  0  0  0  0  0  0  0  0  0  0  0
   23.0089   24.4518   35.5295 C   0  0  0  0  0  0  0  0  0  0  0  0
  1  2  1  0
  2  3  2  0
  2  4  1  0
  4  5  2  0
  5  6  1  0
  6  7  2  0
  7  8  1  0
  8  9  2  0
  9 10  1  0
 10 11  2  0
 11 12  1  0
 12 13  2  0
 13 14  1  0
  1 15  1  0
 15 16  2  0
 16 17  1  0
 17 18  2  0
 18 19  1  0
 19 20  1  0
 20 21  1  0
 21 22  1  0
 22 23  1  0
 23 24  1  0
 24 25  1  0
 24 26  1  0
 20 27  1  0
 27 28  2  0
 27 29  1  0
 13  4  1  0
 29 15  1  0
 12  7  1  0
 23 18  1  0
M  END
>  <AAScore>  (1) 
9820.230212056897

>  <RootName>  (1) 
./4ZLY/04_DeltaGEst/trajectory_01/rank_00/lead_0000

$$$$
