confid_8
     RDKit          3D

 28 31  0  0  0  0  0  0  0  0999 V2000
   24.4800   26.1000   36.1300 N   0  0  0  0  0  0  0  0  0  0  0  0
   25.2500   26.2500   34.9900 C   0  0  0  0  0  0  0  0  0  0  0  0
   24.7400   25.7600   33.9900 O   0  0  0  0  0  0  0  0  0  0  0  0
   26.5900   26.8900   34.9600 C   0  0  0  0  0  0  0  0  0  0  0  0
   27.0600   27.2400   36.1600 N   0  0  0  0  0  0  0  0  0  0  0  0
   28.3000   27.7100   36.2400 N   0  0  0  0  0  0  0  0  0  0  0  0
   29.0500   27.9600   35.1500 C   0  0  0  0  0  0  0  0  0  0  0  0
   30.3400   28.4900   35.2600 C   0  0  0  0  0  0  0  0  0  0  0  0
   31.1100   28.8200   34.1400 C   0  0  0  0  0  0  0  0  0  0  0  0
   30.5200   28.6700   32.8800 C   0  0  0  0  0  0  0  0  0  0  0  0
   29.2900   28.0200   32.7700 C   0  0  0  0  0  0  0  0  0  0  0  0
   28.5200   27.7100   33.8900 C   0  0  0  0  0  0  0  0  0  0  0  0
   27.2700   27.0800   33.7600 C   0  0  0  0  0  0  0  0  0  0  0  0
   26.7500   26.8800   32.4900 N   0  0  0  0  0  0  0  0  0  0  0  0
   23.3937   25.1610   36.2655 C   0  0  0  0  0  0  0  0  0  0  0  0
   23.4854   23.9578   35.6504 N   0  0  0  0  0  0  0  0  0  0  0  0
   22.5414   23.0009   35.7788 C   0  0  0  0  0  0  0  0  0  0  0  0
   21.4172   23.1965   36.5953 C   0  0  0  0  0  0  0  0  0  0  0  0
   20.4863   22.0086   36.7398 C   0  0  0  0  0  0  0  0  0  0  0  0
   19.0440   22.3904   36.6445 C   0  0  0  0  0  0  0  0  0  0  0  0
   18.3867   22.0873   35.6121 O   0  0  0  0  0  0  0  0  0  0  0  0
   18.4154   23.0929   37.7227 N   0  0  0  0  0  0  0  0  0  0  0  0
   19.2532   23.6568   38.7832 C   0  0  0  0  0  0  0  0  0  0  0  0
   20.1133   24.7901   38.2243 C   0  0  0  0  0  0  0  0  0  0  0  0
   21.2861   24.4387   37.2990 C   0  0  0  0  0  0  0  0  0  0  0  0
   22.2669   25.4537   37.0668 C   0  0  0  0  0  0  0  0  0  0  0  0
   22.1374   26.8372   37.6769 C   0  0  0  0  0  0  0  0  0  0  0  0
   16.9628   23.2891   37.7187 C   0  0  0  0  0  0  0  0  0  0  0  0
  1  2  1  0
  2  3  2  0
  2  4  1  0
  4  5  2  0
  5  6  1  0
  6  7  2  0
  7  8  1  0
  8  9  2  0
  9 10  1  0
 10 11  2  0
 11 12  1  0
 12 13  2  0
 13 14  1  0
  1 15  1  0
 15 16  2  0
 16 17  1  0
 17 18  2  0
 18 19  1  0
 19 20  1  0
 20 21  2  0
 20 22  1  0
 22 23  1  0
 23 24  1  0
 24 25  1  0
 25 26  2  0
 26 27  1  0
 22 28  1  0
 13  4  1  0
 26 15  1  0
 12  7  1  0
 25 18  1  0
M  END
>  <AAScore>  (1) 
697.7748159040618

>  <RootName>  (1) 
./4ZLY/04_DeltaGEst/trajectory_00/rank_01/lead_0440

$$$$
