confid_11
     RDKit          3D

 30 34  0  0  0  0  0  0  0  0999 V2000
   24.2000   26.2400   35.6900 N   0  0  0  0  0  0  0  0  0  0  0  0
   24.8500   26.2800   34.4800 C   0  0  0  0  0  0  0  0  0  0  0  0
   24.3100   25.7400   33.5400 O   0  0  0  0  0  0  0  0  0  0  0  0
   26.1800   26.9700   34.4700 C   0  0  0  0  0  0  0  0  0  0  0  0
   26.6500   27.6000   35.5500 N   0  0  0  0  0  0  0  0  0  0  0  0
   27.7900   28.2700   35.6200 N   0  0  0  0  0  0  0  0  0  0  0  0
   28.5400   28.3000   34.5100 C   0  0  0  0  0  0  0  0  0  0  0  0
   29.7700   28.9400   34.5600 C   0  0  0  0  0  0  0  0  0  0  0  0
   30.7000   28.8900   33.5000 C   0  0  0  0  0  0  0  0  0  0  0  0
   30.3700   28.1400   32.3700 C   0  0  0  0  0  0  0  0  0  0  0  0
   29.1200   27.5200   32.2800 C   0  0  0  0  0  0  0  0  0  0  0  0
   28.2100   27.6100   33.3300 C   0  0  0  0  0  0  0  0  0  0  0  0
   26.9700   26.9700   33.3100 C   0  0  0  0  0  0  0  0  0  0  0  0
   26.5300   26.2400   32.2200 N   0  0  0  0  0  0  0  0  0  0  0  0
   22.7766   26.0929   35.8339 C   0  0  0  0  0  0  0  0  0  0  0  0
   22.3144   25.4141   36.8413 N   0  0  0  0  0  0  0  0  0  0  0  0
   20.9136   25.2429   37.1030 C   0  0  0  0  0  0  0  0  0  0  0  0
   19.9835   25.7351   36.2706 C   0  0  0  0  0  0  0  0  0  0  0  0
   20.3669   26.3776   34.9524 C   0  0  1  0  0  0  0  0  0  0  0  0
   19.4472   27.5835   34.7047 C   0  0  0  0  0  0  0  0  0  0  0  0
   18.0386   27.1786   34.8284 N   0  0  0  0  0  0  0  0  0  0  0  0
   17.0701   27.5971   33.8110 C   0  0  0  0  0  0  0  0  0  0  0  0
   15.6574   27.6625   34.3937 C   0  0  0  0  0  0  0  0  0  0  0  0
   15.3259   26.3801   35.0397 N   0  0  0  0  0  0  0  0  0  0  0  0
   13.9045   26.3572   35.4181 C   0  0  0  0  0  0  0  0  0  0  0  0
   16.1689   26.1657   36.2320 C   0  0  0  0  0  0  0  0  0  0  0  0
   17.6309   26.2767   35.8810 C   0  0  0  0  0  0  0  0  0  0  0  0
   18.5501   25.6179   36.6029 C   0  0  0  0  0  0  0  0  0  0  0  0
   21.8275   26.7590   34.9119 C   0  0  0  0  0  0  0  0  0  0  0  0
   22.2405   27.5991   34.0675 O   0  0  0  0  0  0  0  0  0  0  0  0
  1  2  1  0
  2  3  2  0
  2  4  1  0
  4  5  2  0
  5  6  1  0
  6  7  2  0
  7  8  1  0
  8  9  2  0
  9 10  1  0
 10 11  2  0
 11 12  1  0
 12 13  2  0
 13 14  1  0
  1 15  1  0
 15 16  2  0
 16 17  1  0
 17 18  2  0
 18 19  1  0
 19 20  1  1
 20 21  1  0
 21 22  1  0
 22 23  1  0
 23 24  1  0
 24 25  1  0
 24 26  1  0
 26 27  1  0
 27 28  2  0
 19 29  1  0
 29 30  2  0
 13  4  1  0
 29 15  1  0
 12  7  1  0
 28 18  1  0
 27 21  1  0
M  END
>  <AAScore>  (1) 
388.4658246916664

>  <RootName>  (1) 
./4ZLY/04_DeltaGEst/trajectory_04/rank_00/lead_0101

$$$$
