confid_10
     RDKit          3D

 29 32  0  0  0  0  0  0  0  0999 V2000
   24.5500   26.3900   36.2500 N   0  0  0  0  0  0  0  0  0  0  0  0
   25.6000   26.1300   35.4000 C   0  0  0  0  0  0  0  0  0  0  0  0
   25.4300   25.4300   34.4200 O   0  0  0  0  0  0  0  0  0  0  0  0
   26.9800   26.6300   35.7100 C   0  0  0  0  0  0  0  0  0  0  0  0
   27.3200   26.8200   36.9800 N   0  0  0  0  0  0  0  0  0  0  0  0
   28.4700   27.4000   37.3100 N   0  0  0  0  0  0  0  0  0  0  0  0
   29.4000   27.6300   36.3700 C   0  0  0  0  0  0  0  0  0  0  0  0
   30.6600   28.0500   36.8000 C   0  0  0  0  0  0  0  0  0  0  0  0
   31.5700   28.3600   35.7800 C   0  0  0  0  0  0  0  0  0  0  0  0
   31.3700   28.1000   34.4300 C   0  0  0  0  0  0  0  0  0  0  0  0
   30.1200   27.5900   34.0500 C   0  0  0  0  0  0  0  0  0  0  0  0
   29.1500   27.3400   35.0300 C   0  0  0  0  0  0  0  0  0  0  0  0
   27.8800   26.8900   34.6600 C   0  0  0  0  0  0  0  0  0  0  0  0
   27.4800   26.6100   33.3700 N   0  0  0  0  0  0  0  0  0  0  0  0
   23.2257   25.7651   36.1029 C   0  0  0  0  0  0  0  0  0  0  0  0
   22.1432   26.5923   36.8446 C   0  0  0  0  0  0  0  0  0  0  0  0
   21.7362   26.0158   38.2147 C   0  0  0  0  0  0  0  0  0  0  0  0
   22.8529   25.3053   38.8594 N   0  0  0  0  0  0  0  0  0  0  0  0
   23.1734   25.5288   40.2473 C   0  0  0  0  0  0  0  0  0  0  0  0
   24.3589   25.3709   40.6471 O   0  0  0  0  0  0  0  0  0  0  0  0
   22.1489   25.9598   41.2206 C   0  0  0  0  0  0  0  0  0  0  0  0
   20.9505   25.2407   41.4030 C   0  0  0  0  0  0  0  0  0  0  0  0
   20.6271   23.7304   40.5577 Cl  0  0  0  0  0  0  0  0  0  0  0  0
   20.0117   25.7057   42.3302 C   0  0  0  0  0  0  0  0  0  0  0  0
   20.2600   26.8296   43.0529 N   0  0  0  0  0  0  0  0  0  0  0  0
   21.4147   27.5302   42.9075 C   0  0  0  0  0  0  0  0  0  0  0  0
   22.3818   27.1049   41.9953 C   0  0  0  0  0  0  0  0  0  0  0  0
   23.6119   24.2915   38.1110 C   0  0  0  0  0  0  0  0  0  0  0  0
   23.2680   24.3162   36.6163 C   0  0  0  0  0  0  0  0  0  0  0  0
  1  2  1  0
  2  3  2  0
  2  4  1  0
  4  5  2  0
  5  6  1  0
  6  7  2  0
  7  8  1  0
  8  9  2  0
  9 10  1  0
 10 11  2  0
 11 12  1  0
 12 13  2  0
 13 14  1  0
  1 15  1  0
 15 16  1  0
 16 17  1  0
 17 18  1  0
 18 19  1  0
 19 20  2  0
 19 21  1  0
 21 22  2  0
 22 23  1  0
 22 24  1  0
 24 25  2  0
 25 26  1  0
 26 27  2  0
 18 28  1  0
 28 29  1  0
 13  4  1  0
 29 15  1  0
 12  7  1  0
 27 21  1  0
M  END
>  <AAScore>  (1) 
157.83183385927882

>  <RootName>  (1) 
./4ZLY/04_DeltaGEst/trajectory_01/rank_00/lead_0065

$$$$
