confid_18
     RDKit          3D

 30 33  0  0  0  0  0  0  0  0999 V2000
   24.5500   26.3900   36.2500 N   0  0  0  0  0  0  0  0  0  0  0  0
   25.6000   26.1300   35.4000 C   0  0  0  0  0  0  0  0  0  0  0  0
   25.4300   25.4300   34.4200 O   0  0  0  0  0  0  0  0  0  0  0  0
   26.9800   26.6300   35.7100 C   0  0  0  0  0  0  0  0  0  0  0  0
   27.3200   26.8200   36.9800 N   0  0  0  0  0  0  0  0  0  0  0  0
   28.4700   27.4000   37.3100 N   0  0  0  0  0  0  0  0  0  0  0  0
   29.4000   27.6300   36.3700 C   0  0  0  0  0  0  0  0  0  0  0  0
   30.6600   28.0500   36.8000 C   0  0  0  0  0  0  0  0  0  0  0  0
   31.5700   28.3600   35.7800 C   0  0  0  0  0  0  0  0  0  0  0  0
   31.3700   28.1000   34.4300 C   0  0  0  0  0  0  0  0  0  0  0  0
   30.1200   27.5900   34.0500 C   0  0  0  0  0  0  0  0  0  0  0  0
   29.1500   27.3400   35.0300 C   0  0  0  0  0  0  0  0  0  0  0  0
   27.8800   26.8900   34.6600 C   0  0  0  0  0  0  0  0  0  0  0  0
   27.4800   26.6100   33.3700 N   0  0  0  0  0  0  0  0  0  0  0  0
   23.1729   25.9635   35.9673 C   0  0  0  0  0  0  0  0  0  0  0  0
   22.5440   26.8860   34.9106 C   0  0  0  0  0  0  0  0  0  0  0  0
   21.0903   26.4932   34.6260 C   0  0  0  0  0  0  0  0  0  0  0  0
   20.3233   26.3968   35.8780 N   0  0  0  0  0  0  0  0  0  0  0  0
   18.9425   26.8150   35.9433 C   0  0  0  0  0  0  0  0  0  0  0  0
   18.4237   27.0650   37.0665 O   0  0  0  0  0  0  0  0  0  0  0  0
   18.1244   27.0154   34.6897 C   0  0  0  0  0  0  0  0  0  0  0  0
   16.6426   26.9475   34.9599 C   0  0  0  0  0  0  0  0  0  0  0  0
   15.9873   25.7078   35.0211 C   0  0  0  0  0  0  0  0  0  0  0  0
   14.6180   25.6666   35.2993 C   0  0  0  0  0  0  0  0  0  0  0  0
   13.9311   26.8192   35.5207 N   0  0  0  0  0  0  0  0  0  0  0  0
   14.5435   28.0333   35.4793 C   0  0  0  0  0  0  0  0  0  0  0  0
   15.9112   28.1200   35.2036 C   0  0  0  0  0  0  0  0  0  0  0  0
   13.8246   29.1604   35.7061 F   0  0  0  0  0  0  0  0  0  0  0  0
   20.8843   25.5814   36.9656 C   0  0  0  0  0  0  0  0  0  0  0  0
   22.3300   25.9937   37.2535 C   0  0  0  0  0  0  0  0  0  0  0  0
  1  2  1  0
  2  3  2  0
  2  4  1  0
  4  5  2  0
  5  6  1  0
  6  7  2  0
  7  8  1  0
  8  9  2  0
  9 10  1  0
 10 11  2  0
 11 12  1  0
 12 13  2  0
 13 14  1  0
  1 15  1  0
 15 16  1  0
 16 17  1  0
 17 18  1  0
 18 19  1  0
 19 20  2  0
 19 21  1  0
 21 22  1  0
 22 23  2  0
 23 24  1  0
 24 25  2  0
 25 26  1  0
 26 27  2  0
 26 28  1  0
 18 29  1  0
 29 30  1  0
 13  4  1  0
 30 15  1  0
 12  7  1  0
 27 22  1  0
M  END
>  <AAScore>  (1) 
178.99845101059051

>  <RootName>  (1) 
./4ZLY/04_DeltaGEst/trajectory_01/rank_00/lead_0242

$$$$
