confid_17
     RDKit          3D

 28 32  0  0  0  0  0  0  0  0999 V2000
   24.2000   26.2400   35.6900 N   0  0  0  0  0  0  0  0  0  0  0  0
   24.8500   26.2800   34.4800 C   0  0  0  0  0  0  0  0  0  0  0  0
   24.3100   25.7400   33.5400 O   0  0  0  0  0  0  0  0  0  0  0  0
   26.1800   26.9700   34.4700 C   0  0  0  0  0  0  0  0  0  0  0  0
   26.6500   27.6000   35.5500 N   0  0  0  0  0  0  0  0  0  0  0  0
   27.7900   28.2700   35.6200 N   0  0  0  0  0  0  0  0  0  0  0  0
   28.5400   28.3000   34.5100 C   0  0  0  0  0  0  0  0  0  0  0  0
   29.7700   28.9400   34.5600 C   0  0  0  0  0  0  0  0  0  0  0  0
   30.7000   28.8900   33.5000 C   0  0  0  0  0  0  0  0  0  0  0  0
   30.3700   28.1400   32.3700 C   0  0  0  0  0  0  0  0  0  0  0  0
   29.1200   27.5200   32.2800 C   0  0  0  0  0  0  0  0  0  0  0  0
   28.2100   27.6100   33.3300 C   0  0  0  0  0  0  0  0  0  0  0  0
   26.9700   26.9700   33.3100 C   0  0  0  0  0  0  0  0  0  0  0  0
   26.5300   26.2400   32.2200 N   0  0  0  0  0  0  0  0  0  0  0  0
   30.1607   29.6698   35.7352 N   0  0  0  0  0  0  0  0  0  0  0  0
   30.3416   28.9655   37.0183 C   0  0  0  0  0  0  0  0  0  0  0  0
   31.4144   29.6432   37.8733 C   0  0  0  0  0  0  0  0  0  0  0  0
   31.1268   31.1430   37.9132 C   0  0  0  0  0  0  0  0  0  0  0  0
   31.4914   31.9481   39.1583 C   0  0  0  0  0  0  0  0  0  0  0  0
   30.0495   31.5258   38.9288 C   0  0  0  0  0  0  0  0  0  0  0  0
   30.8974   31.7836   36.5669 C   0  0  0  0  0  0  0  0  0  0  0  0
   30.4337   31.0487   35.5991 N   0  0  0  0  0  0  0  0  0  0  0  0
   31.2337   33.1937   36.2859 C   0  0  0  0  0  0  0  0  0  0  0  0
   32.4951   33.7139   36.6118 C   0  0  0  0  0  0  0  0  0  0  0  0
   32.8021   35.0419   36.3101 C   0  0  0  0  0  0  0  0  0  0  0  0
   31.8486   35.8357   35.6702 C   0  0  0  0  0  0  0  0  0  0  0  0
   30.6359   35.3144   35.3454 N   0  0  0  0  0  0  0  0  0  0  0  0
   30.3128   34.0243   35.6293 C   0  0  0  0  0  0  0  0  0  0  0  0
  1  2  1  0
  2  3  2  0
  2  4  1  0
  4  5  2  0
  5  6  1  0
  6  7  2  0
  7  8  1  0
  8  9  2  0
  9 10  1  0
 10 11  2  0
 11 12  1  0
 12 13  2  0
 13 14  1  0
  8 15  1  0
 15 16  1  0
 16 17  1  0
 17 18  1  0
 18 19  1  0
 19 20  1  0
 18 21  1  0
 21 22  2  0
 21 23  1  0
 23 24  2  0
 24 25  1  0
 25 26  2  0
 26 27  1  0
 27 28  2  0
 13  4  1  0
 22 15  1  0
 28 23  1  0
 12  7  1  0
 20 18  1  0
M  END
>  <AAScore>  (1) 
-8.475292076652458

>  <RootName>  (1) 
./4ZLY/04_DeltaGEst/trajectory_04/rank_01/lead_0479

$$$$
