confid_8
     RDKit          3D

 27 30  0  0  0  0  0  0  0  0999 V2000
   24.6900   26.1200   35.5300 N   0  0  0  0  0  0  0  0  0  0  0  0
   25.6600   25.6700   34.6600 C   0  0  0  0  0  0  0  0  0  0  0  0
   25.2400   25.0100   33.7200 O   0  0  0  0  0  0  0  0  0  0  0  0
   27.0300   26.2200   34.8800 C   0  0  0  0  0  0  0  0  0  0  0  0
   27.3500   26.7300   36.0700 N   0  0  0  0  0  0  0  0  0  0  0  0
   28.5700   27.1800   36.3300 N   0  0  0  0  0  0  0  0  0  0  0  0
   29.5300   27.1100   35.3900 C   0  0  0  0  0  0  0  0  0  0  0  0
   30.8300   27.5700   35.6500 C   0  0  0  0  0  0  0  0  0  0  0  0
   31.8500   27.5400   34.6900 C   0  0  0  0  0  0  0  0  0  0  0  0
   31.5100   27.1200   33.4000 C   0  0  0  0  0  0  0  0  0  0  0  0
   30.2200   26.6300   33.1100 C   0  0  0  0  0  0  0  0  0  0  0  0
   29.2400   26.6600   34.1000 C   0  0  0  0  0  0  0  0  0  0  0  0
   27.9300   26.2600   33.8100 C   0  0  0  0  0  0  0  0  0  0  0  0
   27.5200   25.7100   32.6100 N   0  0  0  0  0  0  0  0  0  0  0  0
   23.3423   26.4547   35.1516 C   0  0  0  0  0  0  0  0  0  0  0  0
   22.3581   26.3736   36.0840 N   0  0  0  0  0  0  0  0  0  0  0  0
   21.0717   26.7012   35.8042 C   0  0  0  0  0  0  0  0  0  0  0  0
   20.7102   27.1325   34.5251 C   0  0  0  0  0  0  0  0  0  0  0  0
   19.3636   27.4246   34.2896 O   0  0  0  0  0  0  0  0  0  0  0  0
   18.6488   26.9592   33.1499 C   0  0  0  0  0  0  0  0  0  0  0  0
   18.9944   27.6986   32.0014 O   0  0  0  0  0  0  0  0  0  0  0  0
   20.2295   27.2581   31.4780 C   0  0  0  0  0  0  0  0  0  0  0  0
   21.4069   27.9259   32.1960 C   0  0  0  0  0  0  0  0  0  0  0  0
   21.1236   29.2653   32.4047 F   0  0  0  0  0  0  0  0  0  0  0  0
   22.5067   27.8523   31.3545 F   0  0  0  0  0  0  0  0  0  0  0  0
   21.7088   27.2733   33.5340 C   0  0  0  0  0  0  0  0  0  0  0  0
   23.0355   26.9362   33.8680 C   0  0  0  0  0  0  0  0  0  0  0  0
  1  2  1  0
  2  3  2  0
  2  4  1  0
  4  5  2  0
  5  6  1  0
  6  7  2  0
  7  8  1  0
  8  9  2  0
  9 10  1  0
 10 11  2  0
 11 12  1  0
 12 13  2  0
 13 14  1  0
  1 15  1  0
 15 16  2  0
 16 17  1  0
 17 18  2  0
 18 19  1  0
 19 20  1  0
 20 21  1  0
 21 22  1  0
 22 23  1  0
 23 24  1  0
 23 25  1  0
 23 26  1  0
 26 27  2  0
 13  4  1  0
 27 15  1  0
 12  7  1  0
 26 18  1  0
M  END
>  <AAScore>  (1) 
11256.050238887015

>  <RootName>  (1) 
./4ZLY/04_DeltaGEst/trajectory_02/rank_00/lead_0489

$$$$
