confid_5
     RDKit          3D

 31 34  0  0  0  0  0  0  0  0999 V2000
   24.6900   26.1200   35.5300 N   0  0  0  0  0  0  0  0  0  0  0  0
   25.6600   25.6700   34.6600 C   0  0  0  0  0  0  0  0  0  0  0  0
   25.2400   25.0100   33.7200 O   0  0  0  0  0  0  0  0  0  0  0  0
   27.0300   26.2200   34.8800 C   0  0  0  0  0  0  0  0  0  0  0  0
   27.3500   26.7300   36.0700 N   0  0  0  0  0  0  0  0  0  0  0  0
   28.5700   27.1800   36.3300 N   0  0  0  0  0  0  0  0  0  0  0  0
   29.5300   27.1100   35.3900 C   0  0  0  0  0  0  0  0  0  0  0  0
   30.8300   27.5700   35.6500 C   0  0  0  0  0  0  0  0  0  0  0  0
   31.8500   27.5400   34.6900 C   0  0  0  0  0  0  0  0  0  0  0  0
   31.5100   27.1200   33.4000 C   0  0  0  0  0  0  0  0  0  0  0  0
   30.2200   26.6300   33.1100 C   0  0  0  0  0  0  0  0  0  0  0  0
   29.2400   26.6600   34.1000 C   0  0  0  0  0  0  0  0  0  0  0  0
   27.9300   26.2600   33.8100 C   0  0  0  0  0  0  0  0  0  0  0  0
   27.5200   25.7100   32.6100 N   0  0  0  0  0  0  0  0  0  0  0  0
   23.2906   25.7530   35.5081 C   0  0  0  0  0  0  0  0  0  0  0  0
   22.8809   24.7618   34.7654 N   0  0  0  0  0  0  0  0  0  0  0  0
   21.5279   24.3155   34.6536 C   0  0  0  0  0  0  0  0  0  0  0  0
   20.7206   24.6546   33.6313 C   0  0  0  0  0  0  0  0  0  0  0  0
   19.4282   23.8825   33.4853 C   0  0  0  0  0  0  0  0  0  0  0  0
   18.6616   24.2994   32.2971 N   0  0  0  0  0  0  0  0  0  0  0  0
   19.5489   24.4083   31.1341 C   0  0  0  0  0  0  0  0  0  0  0  0
   20.4510   25.6271   31.3152 C   0  0  0  0  0  0  0  0  0  0  0  0
   21.0499   25.6805   32.6562 N   0  0  0  0  0  0  0  0  0  0  0  0
   21.7667   26.9202   33.0124 C   0  0  0  0  0  0  0  0  0  0  0  0
   21.0838   27.6591   34.1881 C   0  0  0  0  0  0  0  0  0  0  0  0
   22.0154   27.9141   35.3879 C   0  0  0  0  0  0  0  0  0  0  0  0
   22.3074   26.6535   36.2202 C   0  0  0  0  0  0  0  0  0  0  0  0
   17.4045   23.1329   31.9646 S   0  0  0  0  0  6  0  0  0  0  0  0
   16.6044   23.5846   30.7738 O   0  0  0  0  0  0  0  0  0  0  0  0
   18.0088   21.7881   31.6687 O   0  0  0  0  0  0  0  0  0  0  0  0
   16.3092   22.9821   33.3618 C   0  0  0  0  0  0  0  0  0  0  0  0
  1  2  1  0
  2  3  2  0
  2  4  1  0
  4  5  2  0
  5  6  1  0
  6  7  2  0
  7  8  1  0
  8  9  2  0
  9 10  1  0
 10 11  2  0
 11 12  1  0
 12 13  2  0
 13 14  1  0
  1 15  1  0
 15 16  2  0
 16 17  1  0
 17 18  2  0
 18 19  1  0
 19 20  1  0
 20 21  1  0
 21 22  1  0
 22 23  1  0
 23 24  1  0
 24 25  1  0
 25 26  1  0
 26 27  1  0
 20 28  1  0
 28 29  2  0
 28 30  2  0
 28 31  1  0
 13  4  1  0
 27 15  1  0
 12  7  1  0
 23 18  1  0
M  END
>  <AAScore>  (1) 
1716.3643061604732

>  <RootName>  (1) 
./4ZLY/04_DeltaGEst/trajectory_02/rank_00/lead_0089

$$$$
