confid_12
     RDKit          3D

 28 31  0  0  0  0  0  0  0  0999 V2000
   24.6900   26.1200   35.5300 N   0  0  0  0  0  0  0  0  0  0  0  0
   25.6600   25.6700   34.6600 C   0  0  0  0  0  0  0  0  0  0  0  0
   25.2400   25.0100   33.7200 O   0  0  0  0  0  0  0  0  0  0  0  0
   27.0300   26.2200   34.8800 C   0  0  0  0  0  0  0  0  0  0  0  0
   27.3500   26.7300   36.0700 N   0  0  0  0  0  0  0  0  0  0  0  0
   28.5700   27.1800   36.3300 N   0  0  0  0  0  0  0  0  0  0  0  0
   29.5300   27.1100   35.3900 C   0  0  0  0  0  0  0  0  0  0  0  0
   30.8300   27.5700   35.6500 C   0  0  0  0  0  0  0  0  0  0  0  0
   31.8500   27.5400   34.6900 C   0  0  0  0  0  0  0  0  0  0  0  0
   31.5100   27.1200   33.4000 C   0  0  0  0  0  0  0  0  0  0  0  0
   30.2200   26.6300   33.1100 C   0  0  0  0  0  0  0  0  0  0  0  0
   29.2400   26.6600   34.1000 C   0  0  0  0  0  0  0  0  0  0  0  0
   27.9300   26.2600   33.8100 C   0  0  0  0  0  0  0  0  0  0  0  0
   27.5200   25.7100   32.6100 N   0  0  0  0  0  0  0  0  0  0  0  0
   23.2797   26.1483   35.2475 C   0  0  0  0  0  0  0  0  0  0  0  0
   22.4027   25.8454   36.2402 N   0  0  0  0  0  0  0  0  0  0  0  0
   21.0587   25.8802   36.0540 C   0  0  0  0  0  0  0  0  0  0  0  0
   20.5178   26.2601   34.8152 C   0  0  0  0  0  0  0  0  0  0  0  0
   19.0139   26.2756   34.6519 C   0  0  0  0  0  0  0  0  0  0  0  0
   18.6063   27.4201   33.8038 N   0  0  0  0  0  0  0  0  0  0  0  0
   17.7312   28.3503   34.5339 C   0  0  0  0  0  0  0  0  0  0  0  0
   17.9666   27.0001   32.5388 C   0  0  0  0  0  0  0  0  0  0  0  0
   18.8216   26.0583   31.7215 C   0  0  0  0  0  0  0  0  0  0  0  0
   20.1573   26.0883   31.6833 C   0  0  0  0  0  0  0  0  0  0  0  0
   20.9194   27.0085   32.4711 N   0  0  0  0  0  0  0  0  0  0  0  0
   21.4763   28.1885   31.8123 C   0  0  0  0  0  0  0  0  0  0  0  0
   21.4076   26.5932   33.7623 C   0  0  0  0  0  0  0  0  0  0  0  0
   22.7913   26.5452   33.9951 C   0  0  0  0  0  0  0  0  0  0  0  0
  1  2  1  0
  2  3  2  0
  2  4  1  0
  4  5  2  0
  5  6  1  0
  6  7  2  0
  7  8  1  0
  8  9  2  0
  9 10  1  0
 10 11  2  0
 11 12  1  0
 12 13  2  0
 13 14  1  0
  1 15  1  0
 15 16  2  0
 16 17  1  0
 17 18  2  0
 18 19  1  0
 19 20  1  0
 20 21  1  0
 20 22  1  0
 22 23  1  0
 23 24  2  0
 24 25  1  0
 25 26  1  0
 25 27  1  0
 27 28  2  0
 13  4  1  0
 28 15  1  0
 12  7  1  0
 27 18  1  0
M  END
>  <AAScore>  (1) 
259.18494917609394

>  <RootName>  (1) 
./4ZLY/04_DeltaGEst/trajectory_02/rank_00/lead_0141

$$$$
