confid_5
     RDKit          3D

 29 32  0  0  0  0  0  0  0  0999 V2000
   24.2000   26.2400   35.6900 N   0  0  0  0  0  0  0  0  0  0  0  0
   24.8500   26.2800   34.4800 C   0  0  0  0  0  0  0  0  0  0  0  0
   24.3100   25.7400   33.5400 O   0  0  0  0  0  0  0  0  0  0  0  0
   26.1800   26.9700   34.4700 C   0  0  0  0  0  0  0  0  0  0  0  0
   26.6500   27.6000   35.5500 N   0  0  0  0  0  0  0  0  0  0  0  0
   27.7900   28.2700   35.6200 N   0  0  0  0  0  0  0  0  0  0  0  0
   28.5400   28.3000   34.5100 C   0  0  0  0  0  0  0  0  0  0  0  0
   29.7700   28.9400   34.5600 C   0  0  0  0  0  0  0  0  0  0  0  0
   30.7000   28.8900   33.5000 C   0  0  0  0  0  0  0  0  0  0  0  0
   30.3700   28.1400   32.3700 C   0  0  0  0  0  0  0  0  0  0  0  0
   29.1200   27.5200   32.2800 C   0  0  0  0  0  0  0  0  0  0  0  0
   28.2100   27.6100   33.3300 C   0  0  0  0  0  0  0  0  0  0  0  0
   26.9700   26.9700   33.3100 C   0  0  0  0  0  0  0  0  0  0  0  0
   26.5300   26.2400   32.2200 N   0  0  0  0  0  0  0  0  0  0  0  0
   30.1528   29.6608   35.7452 N   0  0  0  0  0  0  0  0  0  0  0  0
   29.4520   30.8974   36.1133 C   0  0  0  0  0  0  0  0  0  0  0  0
   30.3771   31.8190   36.9151 C   0  0  0  0  0  0  0  0  0  0  0  0
   31.7376   31.7336   36.3501 N   0  0  0  0  0  0  0  0  0  0  0  0
   32.6059   32.8146   36.8555 C   0  0  0  0  0  0  0  0  0  0  0  0
   32.2640   34.1283   36.1813 C   0  0  0  0  0  0  0  0  0  0  0  0
   31.7904   35.2710   36.8838 C   0  0  0  0  0  0  0  0  0  0  0  0
   31.5956   35.2905   38.3850 C   0  0  0  0  0  0  0  0  0  0  0  0
   32.9153   35.5711   39.1014 C   0  0  0  0  0  0  0  0  0  0  0  0
   31.5223   36.4522   36.1667 C   0  0  0  0  0  0  0  0  0  0  0  0
   31.6793   36.4980   34.7813 C   0  0  0  0  0  0  0  0  0  0  0  0
   32.1350   35.3774   34.0933 C   0  0  0  0  0  0  0  0  0  0  0  0
   32.4304   34.2036   34.7867 C   0  0  0  0  0  0  0  0  0  0  0  0
   32.3463   30.4090   36.6197 C   0  0  0  0  0  0  0  0  0  0  0  0
   31.3337   29.2494   36.5108 C   0  0  0  0  0  0  0  0  0  0  0  0
  1  2  1  0
  2  3  2  0
  2  4  1  0
  4  5  2  0
  5  6  1  0
  6  7  2  0
  7  8  1  0
  8  9  2  0
  9 10  1  0
 10 11  2  0
 11 12  1  0
 12 13  2  0
 13 14  1  0
  8 15  1  0
 15 16  1  0
 16 17  1  0
 17 18  1  0
 18 19  1  0
 19 20  1  0
 20 21  2  0
 21 22  1  0
 22 23  1  0
 21 24  1  0
 24 25  2  0
 25 26  1  0
 26 27  2  0
 18 28  1  0
 28 29  1  0
 13  4  1  0
 29 15  1  0
 12  7  1  0
 27 20  1  0
M  END
>  <AAScore>  (1) 
-8.148745567926975

>  <RootName>  (1) 
./4ZLY/04_DeltaGEst/trajectory_04/rank_01/lead_0451

$$$$
