confid_17
     RDKit          3D

 28 31  0  0  0  0  0  0  0  0999 V2000
   24.5700   26.8800   35.5900 N   0  0  0  0  0  0  0  0  0  0  0  0
   25.5000   26.4000   34.6900 C   0  0  0  0  0  0  0  0  0  0  0  0
   25.1700   25.5200   33.9100 O   0  0  0  0  0  0  0  0  0  0  0  0
   26.8400   27.0200   34.7400 C   0  0  0  0  0  0  0  0  0  0  0  0
   27.3800   27.2800   35.9400 N   0  0  0  0  0  0  0  0  0  0  0  0
   28.6200   27.7400   36.0300 N   0  0  0  0  0  0  0  0  0  0  0  0
   29.3800   28.0000   34.9600 C   0  0  0  0  0  0  0  0  0  0  0  0
   30.6700   28.5000   35.1300 C   0  0  0  0  0  0  0  0  0  0  0  0
   31.5400   28.6100   34.0300 C   0  0  0  0  0  0  0  0  0  0  0  0
   31.0900   28.2200   32.7700 C   0  0  0  0  0  0  0  0  0  0  0  0
   29.8000   27.7000   32.6000 C   0  0  0  0  0  0  0  0  0  0  0  0
   28.9600   27.5500   33.7100 C   0  0  0  0  0  0  0  0  0  0  0  0
   27.6600   27.0300   33.5900 C   0  0  0  0  0  0  0  0  0  0  0  0
   27.1600   26.7400   32.3400 N   0  0  0  0  0  0  0  0  0  0  0  0
   23.1515   26.6728   35.4815 C   0  0  0  0  0  0  0  0  0  0  0  0
   22.4317   26.3561   34.3430 C   0  0  0  0  0  0  0  0  0  0  0  0
   21.1251   26.3083   34.6579 N   0  0  0  0  0  0  0  0  0  0  0  0
   19.8283   25.9457   33.5668 S   0  0  0  0  0  6  0  0  0  0  0  0
   18.5786   26.6396   34.0323 O   0  0  0  0  0  0  0  0  0  0  0  0
   20.1725   26.4610   32.1969 O   0  0  0  0  0  0  0  0  0  0  0  0
   19.5449   24.2232   33.4993 N   0  0  0  0  0  0  0  0  0  0  0  0
   20.6359   23.5583   32.7530 C   0  0  0  0  0  0  0  0  0  0  0  0
   20.6663   22.0524   33.0302 C   0  0  0  0  0  0  0  0  0  0  0  0
   20.9403   21.7689   34.5179 C   0  0  0  0  0  0  0  0  0  0  0  0
   20.5044   22.9253   35.4338 C   0  0  0  0  0  0  0  0  0  0  0  0
   19.2918   23.6673   34.8523 C   0  0  0  0  0  0  0  0  0  0  0  0
   20.9998   26.6057   35.9657 C   0  0  0  0  0  0  0  0  0  0  0  0
   22.2457   26.8468   36.5110 C   0  0  0  0  0  0  0  0  0  0  0  0
  1  2  1  0
  2  3  2  0
  2  4  1  0
  4  5  2  0
  5  6  1  0
  6  7  2  0
  7  8  1  0
  8  9  2  0
  9 10  1  0
 10 11  2  0
 11 12  1  0
 12 13  2  0
 13 14  1  0
  1 15  1  0
 15 16  2  0
 16 17  1  0
 17 18  1  0
 18 19  2  0
 18 20  2  0
 18 21  1  0
 21 22  1  0
 22 23  1  0
 23 24  1  0
 24 25  1  0
 25 26  1  0
 17 27  1  0
 27 28  2  0
 13  4  1  0
 28 15  1  0
 12  7  1  0
 26 21  1  0
M  END
>  <AAScore>  (1) 
242.5884716442638

>  <RootName>  (1) 
./4ZLY/04_DeltaGEst/trajectory_05/rank_00/lead_0006

$$$$
