confid_1
     RDKit          3D

 27 30  0  0  0  0  0  0  0  0999 V2000
   24.2000   26.2400   35.6900 N   0  0  0  0  0  0  0  0  0  0  0  0
   24.8500   26.2800   34.4800 C   0  0  0  0  0  0  0  0  0  0  0  0
   24.3100   25.7400   33.5400 O   0  0  0  0  0  0  0  0  0  0  0  0
   26.1800   26.9700   34.4700 C   0  0  0  0  0  0  0  0  0  0  0  0
   26.6500   27.6000   35.5500 N   0  0  0  0  0  0  0  0  0  0  0  0
   27.7900   28.2700   35.6200 N   0  0  0  0  0  0  0  0  0  0  0  0
   28.5400   28.3000   34.5100 C   0  0  0  0  0  0  0  0  0  0  0  0
   29.7700   28.9400   34.5600 C   0  0  0  0  0  0  0  0  0  0  0  0
   30.7000   28.8900   33.5000 C   0  0  0  0  0  0  0  0  0  0  0  0
   30.3700   28.1400   32.3700 C   0  0  0  0  0  0  0  0  0  0  0  0
   29.1200   27.5200   32.2800 C   0  0  0  0  0  0  0  0  0  0  0  0
   28.2100   27.6100   33.3300 C   0  0  0  0  0  0  0  0  0  0  0  0
   26.9700   26.9700   33.3100 C   0  0  0  0  0  0  0  0  0  0  0  0
   26.5300   26.2400   32.2200 N   0  0  0  0  0  0  0  0  0  0  0  0
   30.1429   29.6594   35.7467 N   0  0  0  0  0  0  0  0  0  0  0  0
   30.7133   28.9255   36.8789 C   0  0  0  0  0  0  0  0  0  0  0  0
   30.3604   29.6216   38.1938 C   0  0  0  0  0  0  0  0  0  0  0  0
   30.7561   31.0781   38.1569 C   0  0  0  0  0  0  0  0  0  0  0  0
   31.1432   31.7107   39.3446 C   0  0  0  0  0  0  0  0  0  0  0  0
   31.4631   33.0644   39.3496 C   0  0  0  0  0  0  0  0  0  0  0  0
   31.4046   33.8068   38.1716 C   0  0  0  0  0  0  0  0  0  0  0  0
   31.0169   33.2002   36.9591 C   0  0  0  0  0  0  0  0  0  0  0  0
   31.0006   34.0323   35.7000 C   0  0  0  0  0  0  0  0  0  0  0  0
   30.6547   31.8220   36.9569 C   0  0  0  0  0  0  0  0  0  0  0  0
   30.1798   31.0986   35.7425 C   0  0  0  0  0  0  0  0  0  0  0  0
   29.7602   31.7271   34.7332 O   0  0  0  0  0  0  0  0  0  0  0  0
   31.7296   35.1242   38.2206 F   0  0  0  0  0  0  0  0  0  0  0  0
  1  2  1  0
  2  3  2  0
  2  4  1  0
  4  5  2  0
  5  6  1  0
  6  7  2  0
  7  8  1  0
  8  9  2  0
  9 10  1  0
 10 11  2  0
 11 12  1  0
 12 13  2  0
 13 14  1  0
  8 15  1  0
 15 16  1  0
 16 17  1  0
 17 18  1  0
 18 19  2  0
 19 20  1  0
 20 21  2  0
 21 22  1  0
 22 23  1  0
 22 24  2  0
 24 25  1  0
 25 26  2  0
 21 27  1  0
 13  4  1  0
 25 15  1  0
 12  7  1  0
 24 18  1  0
M  END
>  <AAScore>  (1) 
-8.300412125614104

>  <RootName>  (1) 
./4ZLY/04_DeltaGEst/trajectory_04/rank_01/lead_0103

$$$$
