confid_7
     RDKit          3D

 29 32  0  0  0  0  0  0  0  0999 V2000
   24.6900   26.1200   35.5300 N   0  0  0  0  0  0  0  0  0  0  0  0
   25.6600   25.6700   34.6600 C   0  0  0  0  0  0  0  0  0  0  0  0
   25.2400   25.0100   33.7200 O   0  0  0  0  0  0  0  0  0  0  0  0
   27.0300   26.2200   34.8800 C   0  0  0  0  0  0  0  0  0  0  0  0
   27.3500   26.7300   36.0700 N   0  0  0  0  0  0  0  0  0  0  0  0
   28.5700   27.1800   36.3300 N   0  0  0  0  0  0  0  0  0  0  0  0
   29.5300   27.1100   35.3900 C   0  0  0  0  0  0  0  0  0  0  0  0
   30.8300   27.5700   35.6500 C   0  0  0  0  0  0  0  0  0  0  0  0
   31.8500   27.5400   34.6900 C   0  0  0  0  0  0  0  0  0  0  0  0
   31.5100   27.1200   33.4000 C   0  0  0  0  0  0  0  0  0  0  0  0
   30.2200   26.6300   33.1100 C   0  0  0  0  0  0  0  0  0  0  0  0
   29.2400   26.6600   34.1000 C   0  0  0  0  0  0  0  0  0  0  0  0
   27.9300   26.2600   33.8100 C   0  0  0  0  0  0  0  0  0  0  0  0
   27.5200   25.7100   32.6100 N   0  0  0  0  0  0  0  0  0  0  0  0
   31.1463   28.0705   36.9593 N   0  0  0  0  0  0  0  0  0  0  0  0
   31.0953   27.1897   38.1302 C   0  0  0  0  0  0  0  0  0  0  0  0
   30.2043   27.8015   39.2314 C   0  0  0  0  0  0  0  0  0  0  0  0
   29.9057   29.2338   38.9849 N   0  0  0  0  0  0  0  0  0  0  0  0
   29.3036   29.8682   40.1734 C   0  0  0  0  0  0  0  0  0  0  0  0
   27.8979   29.3694   40.3694 C   0  0  0  0  0  0  0  0  0  0  0  0
   27.4209   28.5796   41.4040 C   0  0  0  0  0  0  0  0  0  0  0  0
   28.1926   28.1170   42.5959 C   0  0  0  0  0  0  0  0  0  0  0  0
   26.1658   28.2597   41.1806 O   0  0  0  0  0  0  0  0  0  0  0  0
   25.7908   28.7975   40.0416 C   0  0  0  0  0  0  0  0  0  0  0  0
   24.4293   28.6280   39.4520 C   0  0  0  0  0  0  0  0  0  0  0  0
   26.8364   29.5215   39.4940 C   0  0  0  0  0  0  0  0  0  0  0  0
   26.8585   30.1976   38.1573 C   0  0  0  0  0  0  0  0  0  0  0  0
   31.1186   29.9516   38.5500 C   0  0  0  0  0  0  0  0  0  0  0  0
   31.4944   29.4841   37.1379 C   0  0  0  0  0  0  0  0  0  0  0  0
  1  2  1  0
  2  3  2  0
  2  4  1  0
  4  5  2  0
  5  6  1  0
  6  7  2  0
  7  8  1  0
  8  9  2  0
  9 10  1  0
 10 11  2  0
 11 12  1  0
 12 13  2  0
 13 14  1  0
  8 15  1  0
 15 16  1  0
 16 17  1  0
 17 18  1  0
 18 19  1  0
 19 20  1  0
 20 21  2  0
 21 22  1  0
 21 23  1  0
 23 24  1  0
 24 25  1  0
 24 26  2  0
 26 27  1  0
 18 28  1  0
 28 29  1  0
 13  4  1  0
 29 15  1  0
 12  7  1  0
 26 20  1  0
M  END
>  <AAScore>  (1) 
-7.875351131122045

>  <RootName>  (1) 
./4ZLY/04_DeltaGEst/trajectory_02/rank_01/lead_0438

$$$$
