confid_17
     RDKit          3D

 27 30  0  0  0  0  0  0  0  0999 V2000
   24.5700   26.8800   35.5900 N   0  0  0  0  0  0  0  0  0  0  0  0
   25.5000   26.4000   34.6900 C   0  0  0  0  0  0  0  0  0  0  0  0
   25.1700   25.5200   33.9100 O   0  0  0  0  0  0  0  0  0  0  0  0
   26.8400   27.0200   34.7400 C   0  0  0  0  0  0  0  0  0  0  0  0
   27.3800   27.2800   35.9400 N   0  0  0  0  0  0  0  0  0  0  0  0
   28.6200   27.7400   36.0300 N   0  0  0  0  0  0  0  0  0  0  0  0
   29.3800   28.0000   34.9600 C   0  0  0  0  0  0  0  0  0  0  0  0
   30.6700   28.5000   35.1300 C   0  0  0  0  0  0  0  0  0  0  0  0
   31.5400   28.6100   34.0300 C   0  0  0  0  0  0  0  0  0  0  0  0
   31.0900   28.2200   32.7700 C   0  0  0  0  0  0  0  0  0  0  0  0
   29.8000   27.7000   32.6000 C   0  0  0  0  0  0  0  0  0  0  0  0
   28.9600   27.5500   33.7100 C   0  0  0  0  0  0  0  0  0  0  0  0
   27.6600   27.0300   33.5900 C   0  0  0  0  0  0  0  0  0  0  0  0
   27.1600   26.7400   32.3400 N   0  0  0  0  0  0  0  0  0  0  0  0
   23.2583   26.3188   35.7263 C   0  0  0  0  0  0  0  0  0  0  0  0
   22.2455   27.0113   35.2776 N   0  0  0  0  0  0  0  0  0  0  0  0
   20.8893   26.5593   35.3109 C   0  0  0  0  0  0  0  0  0  0  0  0
   20.3028   26.2946   36.4850 C   0  0  0  0  0  0  0  0  0  0  0  0
   19.7657   24.9104   36.6525 C   0  0  0  0  0  0  0  0  0  0  0  0
   20.9008   23.9683   36.8792 N   0  0  0  0  0  0  0  0  0  0  0  0
   20.4797   22.7843   37.6610 C   0  0  0  0  0  0  0  0  0  0  0  0
   19.4374   21.9525   36.9111 C   0  0  0  0  0  0  0  0  0  0  0  0
   22.1374   24.6022   37.4526 C   0  0  1  0  0  0  0  0  0  0  0  0
   23.1149   24.9554   36.3357 C   0  0  0  0  0  0  0  0  0  0  0  0
   23.8918   24.0453   35.9391 O   0  0  0  0  0  0  0  0  0  0  0  0
   21.8282   25.8060   38.3892 C   0  0  0  0  0  0  0  0  0  0  0  0
   20.8820   26.8470   37.7580 C   0  0  0  0  0  0  0  0  0  0  0  0
  1  2  1  0
  2  3  2  0
  2  4  1  0
  4  5  2  0
  5  6  1  0
  6  7  2  0
  7  8  1  0
  8  9  2  0
  9 10  1  0
 10 11  2  0
 11 12  1  0
 12 13  2  0
 13 14  1  0
  1 15  1  0
 15 16  2  0
 16 17  1  0
 17 18  2  0
 18 19  1  0
 19 20  1  0
 20 21  1  0
 21 22  1  0
 20 23  1  0
 23 24  1  0
 24 25  2  0
 23 26  1  6
 26 27  1  0
 13  4  1  0
 24 15  1  0
 12  7  1  0
 27 18  1  0
M  END
>  <AAScore>  (1) 
3998.000100038027

>  <RootName>  (1) 
./4ZLY/04_DeltaGEst/trajectory_05/rank_00/lead_0489

$$$$
