confid_1
     RDKit          3D

 27 30  0  0  0  0  0  0  0  0999 V2000
   24.5500   26.3900   36.2500 N   0  0  0  0  0  0  0  0  0  0  0  0
   25.6000   26.1300   35.4000 C   0  0  0  0  0  0  0  0  0  0  0  0
   25.4300   25.4300   34.4200 O   0  0  0  0  0  0  0  0  0  0  0  0
   26.9800   26.6300   35.7100 C   0  0  0  0  0  0  0  0  0  0  0  0
   27.3200   26.8200   36.9800 N   0  0  0  0  0  0  0  0  0  0  0  0
   28.4700   27.4000   37.3100 N   0  0  0  0  0  0  0  0  0  0  0  0
   29.4000   27.6300   36.3700 C   0  0  0  0  0  0  0  0  0  0  0  0
   30.6600   28.0500   36.8000 C   0  0  0  0  0  0  0  0  0  0  0  0
   31.5700   28.3600   35.7800 C   0  0  0  0  0  0  0  0  0  0  0  0
   31.3700   28.1000   34.4300 C   0  0  0  0  0  0  0  0  0  0  0  0
   30.1200   27.5900   34.0500 C   0  0  0  0  0  0  0  0  0  0  0  0
   29.1500   27.3400   35.0300 C   0  0  0  0  0  0  0  0  0  0  0  0
   27.8800   26.8900   34.6600 C   0  0  0  0  0  0  0  0  0  0  0  0
   27.4800   26.6100   33.3700 N   0  0  0  0  0  0  0  0  0  0  0  0
   30.9663   28.3082   38.1789 N   0  0  0  0  0  0  0  0  0  0  0  0
   30.2925   29.3958   38.8969 C   0  0  0  0  0  0  0  0  0  0  0  0
   29.8197   28.8982   40.2657 C   0  0  0  0  0  0  0  0  0  0  0  0
   30.8551   28.0944   40.9296 N   0  0  0  0  0  0  0  0  0  0  0  0
   30.6409   27.6619   42.2800 C   0  0  0  0  0  0  0  0  0  0  0  0
   31.2318   28.3786   43.3308 C   0  0  0  0  0  0  0  0  0  0  0  0
   31.0260   27.9875   44.6554 C   0  0  0  0  0  0  0  0  0  0  0  0
   30.2280   26.8785   44.9406 C   0  0  0  0  0  0  0  0  0  0  0  0
   29.6412   26.1512   43.9018 C   0  0  0  0  0  0  0  0  0  0  0  0
   29.8548   26.5222   42.5635 C   0  0  0  0  0  0  0  0  0  0  0  0
   29.2052   25.7251   41.4654 C   0  0  0  0  0  0  0  0  0  0  0  0
   32.1710   27.9036   40.3106 C   0  0  0  0  0  0  0  0  0  0  0  0
   32.0064   27.5084   38.8386 C   0  0  0  0  0  0  0  0  0  0  0  0
  1  2  1  0
  2  3  2  0
  2  4  1  0
  4  5  2  0
  5  6  1  0
  6  7  2  0
  7  8  1  0
  8  9  2  0
  9 10  1  0
 10 11  2  0
 11 12  1  0
 12 13  2  0
 13 14  1  0
  8 15  1  0
 15 16  1  0
 16 17  1  0
 17 18  1  0
 18 19  1  0
 19 20  2  0
 20 21  1  0
 21 22  2  0
 22 23  1  0
 23 24  2  0
 24 25  1  0
 18 26  1  0
 26 27  1  0
 13  4  1  0
 27 15  1  0
 12  7  1  0
 24 19  1  0
M  END
>  <AAScore>  (1) 
574.1213169154765

>  <RootName>  (1) 
./4ZLY/04_DeltaGEst/trajectory_01/rank_01/lead_0127

$$$$
