confid_13
     RDKit          3D

 28 32  0  0  0  0  0  0  0  0999 V2000
   24.4800   26.1000   36.1300 N   0  0  0  0  0  0  0  0  0  0  0  0
   25.2500   26.2500   34.9900 C   0  0  0  0  0  0  0  0  0  0  0  0
   24.7400   25.7600   33.9900 O   0  0  0  0  0  0  0  0  0  0  0  0
   26.5900   26.8900   34.9600 C   0  0  0  0  0  0  0  0  0  0  0  0
   27.0600   27.2400   36.1600 N   0  0  0  0  0  0  0  0  0  0  0  0
   28.3000   27.7100   36.2400 N   0  0  0  0  0  0  0  0  0  0  0  0
   29.0500   27.9600   35.1500 C   0  0  0  0  0  0  0  0  0  0  0  0
   30.3400   28.4900   35.2600 C   0  0  0  0  0  0  0  0  0  0  0  0
   31.1100   28.8200   34.1400 C   0  0  0  0  0  0  0  0  0  0  0  0
   30.5200   28.6700   32.8800 C   0  0  0  0  0  0  0  0  0  0  0  0
   29.2900   28.0200   32.7700 C   0  0  0  0  0  0  0  0  0  0  0  0
   28.5200   27.7100   33.8900 C   0  0  0  0  0  0  0  0  0  0  0  0
   27.2700   27.0800   33.7600 C   0  0  0  0  0  0  0  0  0  0  0  0
   26.7500   26.8800   32.4900 N   0  0  0  0  0  0  0  0  0  0  0  0
   23.4027   25.1576   36.2737 C   0  0  0  0  0  0  0  0  0  0  0  0
   23.4692   24.0027   35.6616 N   0  0  0  0  0  0  0  0  0  0  0  0
   22.4668   22.9834   35.7433 C   0  0  0  0  0  0  0  0  0  0  0  0
   21.2155   23.2562   35.4066 C   0  0  0  0  0  0  0  0  0  0  0  0
   19.8373   22.6843   35.5366 C   0  0  0  0  0  0  0  0  0  0  0  0
   19.1905   23.8031   35.0168 O   0  0  0  0  0  0  0  0  0  0  0  0
   20.4354   24.3842   34.7930 C   0  0  1  0  0  0  0  0  0  0  0  0
   20.5926   25.7574   35.4819 C   0  0  0  0  0  0  0  0  0  0  0  0
   21.0502   25.6772   36.9222 C   0  0  0  0  0  0  0  0  0  0  0  0
   22.3359   25.4531   37.2648 C   0  0  0  0  0  0  0  0  0  0  0  0
   22.6855   25.4813   38.6173 O   0  0  0  0  0  0  0  0  0  0  0  0
   21.7323   25.8385   39.6154 C   0  0  0  0  0  0  0  0  0  0  0  0
   20.4505   25.3659   39.2514 O   0  0  0  0  0  0  0  0  0  0  0  0
   20.0618   25.9647   38.0275 C   0  0  0  0  0  0  0  0  0  0  0  0
  1  2  1  0
  2  3  2  0
  2  4  1  0
  4  5  2  0
  5  6  1  0
  6  7  2  0
  7  8  1  0
  8  9  2  0
  9 10  1  0
 10 11  2  0
 11 12  1  0
 12 13  2  0
 13 14  1  0
  1 15  1  0
 15 16  2  0
 16 17  1  0
 17 18  2  0
 18 19  1  0
 19 20  1  0
 20 21  1  0
 21 22  1  1
 22 23  1  0
 23 24  2  0
 24 25  1  0
 25 26  1  0
 26 27  1  0
 27 28  1  0
 13  4  1  0
 24 15  1  0
 12  7  1  0
 21 18  1  0
 28 23  1  0
M  END
>  <AAScore>  (1) 
2707.358265934889

>  <RootName>  (1) 
./4ZLY/04_DeltaGEst/trajectory_00/rank_01/lead_0055

$$$$
