confid_3
     RDKit          3D

 29 33  0  0  0  0  0  0  0  0999 V2000
   24.5500   26.3900   36.2500 N   0  0  0  0  0  0  0  0  0  0  0  0
   25.6000   26.1300   35.4000 C   0  0  0  0  0  0  0  0  0  0  0  0
   25.4300   25.4300   34.4200 O   0  0  0  0  0  0  0  0  0  0  0  0
   26.9800   26.6300   35.7100 C   0  0  0  0  0  0  0  0  0  0  0  0
   27.3200   26.8200   36.9800 N   0  0  0  0  0  0  0  0  0  0  0  0
   28.4700   27.4000   37.3100 N   0  0  0  0  0  0  0  0  0  0  0  0
   29.4000   27.6300   36.3700 C   0  0  0  0  0  0  0  0  0  0  0  0
   30.6600   28.0500   36.8000 C   0  0  0  0  0  0  0  0  0  0  0  0
   31.5700   28.3600   35.7800 C   0  0  0  0  0  0  0  0  0  0  0  0
   31.3700   28.1000   34.4300 C   0  0  0  0  0  0  0  0  0  0  0  0
   30.1200   27.5900   34.0500 C   0  0  0  0  0  0  0  0  0  0  0  0
   29.1500   27.3400   35.0300 C   0  0  0  0  0  0  0  0  0  0  0  0
   27.8800   26.8900   34.6600 C   0  0  0  0  0  0  0  0  0  0  0  0
   27.4800   26.6100   33.3700 N   0  0  0  0  0  0  0  0  0  0  0  0
   23.3305   25.6296   36.2913 C   0  0  0  0  0  0  0  0  0  0  0  0
   22.2834   26.1701   36.8551 N   0  0  0  0  0  0  0  0  0  0  0  0
   21.0156   25.5207   37.0043 C   0  0  0  0  0  0  0  0  0  0  0  0
   20.3870   25.0437   35.9384 C   0  0  0  0  0  0  0  0  0  0  0  0
   19.2562   24.1283   35.5790 C   0  0  0  0  0  0  0  0  0  0  0  0
   19.5136   24.1450   34.2096 O   0  0  0  0  0  0  0  0  0  0  0  0
   20.5378   25.0589   34.4439 C   0  0  2  0  0  0  0  0  0  0  0  0
   21.9058   24.5832   33.9108 C   0  0  0  0  0  0  0  0  0  0  0  0
   22.6655   23.6803   34.8615 C   0  0  0  0  0  0  0  0  0  0  0  0
   23.3458   24.1800   35.9291 C   0  0  0  0  0  0  0  0  0  0  0  0
   24.1998   23.2660   36.7773 C   0  0  0  0  0  0  0  0  0  0  0  0
   23.5802   21.9503   36.8991 N   0  0  0  0  0  0  0  0  0  0  0  0
   22.8900   21.3850   35.7836 C   0  0  0  0  0  0  0  0  0  0  0  0
   22.4570   20.2033   35.8366 O   0  0  0  0  0  0  0  0  0  0  0  0
   22.7226   22.2011   34.5375 C   0  0  0  0  0  0  0  0  0  0  0  0
  1  2  1  0
  2  3  2  0
  2  4  1  0
  4  5  2  0
  5  6  1  0
  6  7  2  0
  7  8  1  0
  8  9  2  0
  9 10  1  0
 10 11  2  0
 11 12  1  0
 12 13  2  0
 13 14  1  0
  1 15  1  0
 15 16  2  0
 16 17  1  0
 17 18  2  0
 18 19  1  0
 19 20  1  0
 20 21  1  0
 21 22  1  1
 22 23  1  0
 23 24  2  0
 24 25  1  0
 25 26  1  0
 26 27  1  0
 27 28  2  0
 27 29  1  0
 13  4  1  0
 24 15  1  0
 12  7  1  0
 21 18  1  0
 29 23  1  0
M  END
>  <AAScore>  (1) 
2691.692485006624

>  <RootName>  (1) 
./4ZLY/04_DeltaGEst/trajectory_01/rank_00/lead_0252

$$$$
