confid_16
     RDKit          3D

 28 30  0  0  0  0  0  0  0  0999 V2000
   24.5500   26.3900   36.2500 N   0  0  0  0  0  0  0  0  0  0  0  0
   25.6000   26.1300   35.4000 C   0  0  0  0  0  0  0  0  0  0  0  0
   25.4300   25.4300   34.4200 O   0  0  0  0  0  0  0  0  0  0  0  0
   26.9800   26.6300   35.7100 C   0  0  0  0  0  0  0  0  0  0  0  0
   27.3200   26.8200   36.9800 N   0  0  0  0  0  0  0  0  0  0  0  0
   28.4700   27.4000   37.3100 N   0  0  0  0  0  0  0  0  0  0  0  0
   29.4000   27.6300   36.3700 C   0  0  0  0  0  0  0  0  0  0  0  0
   30.6600   28.0500   36.8000 C   0  0  0  0  0  0  0  0  0  0  0  0
   31.5700   28.3600   35.7800 C   0  0  0  0  0  0  0  0  0  0  0  0
   31.3700   28.1000   34.4300 C   0  0  0  0  0  0  0  0  0  0  0  0
   30.1200   27.5900   34.0500 C   0  0  0  0  0  0  0  0  0  0  0  0
   29.1500   27.3400   35.0300 C   0  0  0  0  0  0  0  0  0  0  0  0
   27.8800   26.8900   34.6600 C   0  0  0  0  0  0  0  0  0  0  0  0
   27.4800   26.6100   33.3700 N   0  0  0  0  0  0  0  0  0  0  0  0
   23.2073   25.7982   36.1410 C   0  0  0  0  0  0  0  0  0  0  0  0
   22.4723   26.3159   34.8888 C   0  0  0  0  0  0  0  0  0  0  0  0
   21.1613   25.5528   34.6790 C   0  0  0  0  0  0  0  0  0  0  0  0
   21.3877   24.1009   34.6280 N   0  0  0  0  0  0  0  0  0  0  0  0
   20.3141   23.2572   34.1719 C   0  0  0  0  0  0  0  0  0  0  0  0
   19.1291   23.5356   34.4998 O   0  0  0  0  0  0  0  0  0  0  0  0
   20.5548   22.0861   33.2432 C   0  0  0  0  0  0  0  0  0  0  0  0
   20.5311   22.4628   31.8112 N   0  0  0  0  0  0  0  0  0  0  0  0
   21.6576   23.3513   31.4487 C   0  0  0  0  0  0  0  0  0  0  0  0
   21.9827   23.2420   29.9529 C   0  0  0  0  0  0  0  0  0  0  0  0
   23.2224   24.0593   29.5940 C   0  0  0  0  0  0  0  0  0  0  0  0
   19.2284   23.0324   31.4176 C   0  0  0  0  0  0  0  0  0  0  0  0
   22.6927   23.5369   35.0037 C   0  0  0  0  0  0  0  0  0  0  0  0
   23.2532   24.2488   36.2424 C   0  0  0  0  0  0  0  0  0  0  0  0
  1  2  1  0
  2  3  2  0
  2  4  1  0
  4  5  2  0
  5  6  1  0
  6  7  2  0
  7  8  1  0
  8  9  2  0
  9 10  1  0
 10 11  2  0
 11 12  1  0
 12 13  2  0
 13 14  1  0
  1 15  1  0
 15 16  1  0
 16 17  1  0
 17 18  1  0
 18 19  1  0
 19 20  2  0
 19 21  1  0
 21 22  1  0
 22 23  1  0
 23 24  1  0
 24 25  1  0
 22 26  1  0
 18 27  1  0
 27 28  1  0
 13  4  1  0
 28 15  1  0
 12  7  1  0
M  END
>  <AAScore>  (1) 
521.0747843044775

>  <RootName>  (1) 
./4ZLY/04_DeltaGEst/trajectory_01/rank_00/lead_0434

$$$$
