confid_8
     RDKit          3D

 29 32  0  0  0  0  0  0  0  0999 V2000
   24.5500   26.3900   36.2500 N   0  0  0  0  0  0  0  0  0  0  0  0
   25.6000   26.1300   35.4000 C   0  0  0  0  0  0  0  0  0  0  0  0
   25.4300   25.4300   34.4200 O   0  0  0  0  0  0  0  0  0  0  0  0
   26.9800   26.6300   35.7100 C   0  0  0  0  0  0  0  0  0  0  0  0
   27.3200   26.8200   36.9800 N   0  0  0  0  0  0  0  0  0  0  0  0
   28.4700   27.4000   37.3100 N   0  0  0  0  0  0  0  0  0  0  0  0
   29.4000   27.6300   36.3700 C   0  0  0  0  0  0  0  0  0  0  0  0
   30.6600   28.0500   36.8000 C   0  0  0  0  0  0  0  0  0  0  0  0
   31.5700   28.3600   35.7800 C   0  0  0  0  0  0  0  0  0  0  0  0
   31.3700   28.1000   34.4300 C   0  0  0  0  0  0  0  0  0  0  0  0
   30.1200   27.5900   34.0500 C   0  0  0  0  0  0  0  0  0  0  0  0
   29.1500   27.3400   35.0300 C   0  0  0  0  0  0  0  0  0  0  0  0
   27.8800   26.8900   34.6600 C   0  0  0  0  0  0  0  0  0  0  0  0
   27.4800   26.6100   33.3700 N   0  0  0  0  0  0  0  0  0  0  0  0
   23.1578   25.9729   36.0210 C   0  0  0  0  0  0  0  0  0  0  0  0
   23.0226   24.4265   35.9704 C   0  0  0  0  0  0  0  0  0  0  0  0
   22.4152   23.9121   34.6586 C   0  0  0  0  0  0  0  0  0  0  0  0
   21.1919   24.6622   34.3274 N   0  0  0  0  0  0  0  0  0  0  0  0
   20.0244   24.0083   33.7826 C   0  0  0  0  0  0  0  0  0  0  0  0
   18.9378   24.6427   33.6931 O   0  0  0  0  0  0  0  0  0  0  0  0
   20.0524   22.5737   33.3196 C   0  0  0  0  0  0  0  0  0  0  0  0
   19.9677   21.5087   34.3368 N   0  0  0  0  0  0  0  0  0  0  0  0
   18.6770   21.5411   35.0308 C   0  0  0  0  0  0  0  0  0  0  0  0
   18.6621   20.5663   36.0112 F   0  0  0  0  0  0  0  0  0  0  0  0
   17.6392   21.3022   34.1453 F   0  0  0  0  0  0  0  0  0  0  0  0
   19.4959   22.2503   31.9365 C   0  0  0  0  0  0  0  0  0  0  0  0
   21.0029   22.2827   32.1621 C   0  0  0  0  0  0  0  0  0  0  0  0
   21.1785   26.1292   34.4542 C   0  0  0  0  0  0  0  0  0  0  0  0
   22.5670   26.6847   34.7885 C   0  0  0  0  0  0  0  0  0  0  0  0
  1  2  1  0
  2  3  2  0
  2  4  1  0
  4  5  2  0
  5  6  1  0
  6  7  2  0
  7  8  1  0
  8  9  2  0
  9 10  1  0
 10 11  2  0
 11 12  1  0
 12 13  2  0
 13 14  1  0
  1 15  1  0
 15 16  1  0
 16 17  1  0
 17 18  1  0
 18 19  1  0
 19 20  2  0
 19 21  1  0
 21 22  1  0
 22 23  1  0
 23 24  1  0
 23 25  1  0
 21 26  1  0
 26 27  1  0
 18 28  1  0
 28 29  1  0
 13  4  1  0
 29 15  1  0
 12  7  1  0
 27 21  1  0
M  END
>  <AAScore>  (1) 
623.8047716457172

>  <RootName>  (1) 
./4ZLY/04_DeltaGEst/trajectory_01/rank_00/lead_0180

$$$$
