confid_5
     RDKit          3D

 28 32  0  0  0  0  0  0  0  0999 V2000
   24.5500   26.3900   36.2500 N   0  0  0  0  0  0  0  0  0  0  0  0
   25.6000   26.1300   35.4000 C   0  0  0  0  0  0  0  0  0  0  0  0
   25.4300   25.4300   34.4200 O   0  0  0  0  0  0  0  0  0  0  0  0
   26.9800   26.6300   35.7100 C   0  0  0  0  0  0  0  0  0  0  0  0
   27.3200   26.8200   36.9800 N   0  0  0  0  0  0  0  0  0  0  0  0
   28.4700   27.4000   37.3100 N   0  0  0  0  0  0  0  0  0  0  0  0
   29.4000   27.6300   36.3700 C   0  0  0  0  0  0  0  0  0  0  0  0
   30.6600   28.0500   36.8000 C   0  0  0  0  0  0  0  0  0  0  0  0
   31.5700   28.3600   35.7800 C   0  0  0  0  0  0  0  0  0  0  0  0
   31.3700   28.1000   34.4300 C   0  0  0  0  0  0  0  0  0  0  0  0
   30.1200   27.5900   34.0500 C   0  0  0  0  0  0  0  0  0  0  0  0
   29.1500   27.3400   35.0300 C   0  0  0  0  0  0  0  0  0  0  0  0
   27.8800   26.8900   34.6600 C   0  0  0  0  0  0  0  0  0  0  0  0
   27.4800   26.6100   33.3700 N   0  0  0  0  0  0  0  0  0  0  0  0
   23.1761   26.0762   35.9473 C   0  0  0  0  0  0  0  0  0  0  0  0
   22.7718   26.0172   34.6390 N   0  0  0  0  0  0  0  0  0  0  0  0
   21.4795   25.7923   34.2759 C   0  0  0  0  0  0  0  0  0  0  0  0
   20.5227   25.6399   35.2701 C   0  0  0  0  0  0  0  0  0  0  0  0
   19.0493   25.4280   35.1014 C   0  0  0  0  0  0  0  0  0  0  0  0
   18.5473   25.3726   36.4763 N   0  0  0  0  0  0  0  0  0  0  0  0
   19.6632   25.5455   37.3619 C   0  0  0  0  0  0  0  0  0  0  0  0
   19.5807   25.6016   38.6169 O   0  0  0  0  0  0  0  0  0  0  0  0
   20.8860   25.6966   36.5946 C   0  0  0  0  0  0  0  0  0  0  0  0
   22.2234   25.8834   36.9859 C   0  0  0  0  0  0  0  0  0  0  0  0
   22.6160   25.8996   38.4404 C   0  0  0  0  0  0  0  0  0  0  0  0
   17.1183   25.1732   36.7678 C   0  0  0  0  0  0  0  0  0  0  0  0
   16.7949   24.4158   38.0446 C   0  0  0  0  0  0  0  0  0  0  0  0
   16.5793   25.9258   37.9725 C   0  0  0  0  0  0  0  0  0  0  0  0
  1  2  1  0
  2  3  2  0
  2  4  1  0
  4  5  2  0
  5  6  1  0
  6  7  2  0
  7  8  1  0
  8  9  2  0
  9 10  1  0
 10 11  2  0
 11 12  1  0
 12 13  2  0
 13 14  1  0
  1 15  1  0
 15 16  2  0
 16 17  1  0
 17 18  2  0
 18 19  1  0
 19 20  1  0
 20 21  1  0
 21 22  2  0
 21 23  1  0
 23 24  2  0
 24 25  1  0
 20 26  1  0
 26 27  1  0
 27 28  1  0
 13  4  1  0
 24 15  1  0
 28 26  1  0
 12  7  1  0
 23 18  1  0
M  END
>  <AAScore>  (1) 
16682.40093888126

>  <RootName>  (1) 
./4ZLY/04_DeltaGEst/trajectory_01/rank_00/lead_0234

$$$$
