confid_13
     RDKit          3D

 30 33  0  0  0  0  0  0  0  0999 V2000
   24.5700   26.8800   35.5900 N   0  0  0  0  0  0  0  0  0  0  0  0
   25.5000   26.4000   34.6900 C   0  0  0  0  0  0  0  0  0  0  0  0
   25.1700   25.5200   33.9100 O   0  0  0  0  0  0  0  0  0  0  0  0
   26.8400   27.0200   34.7400 C   0  0  0  0  0  0  0  0  0  0  0  0
   27.3800   27.2800   35.9400 N   0  0  0  0  0  0  0  0  0  0  0  0
   28.6200   27.7400   36.0300 N   0  0  0  0  0  0  0  0  0  0  0  0
   29.3800   28.0000   34.9600 C   0  0  0  0  0  0  0  0  0  0  0  0
   30.6700   28.5000   35.1300 C   0  0  0  0  0  0  0  0  0  0  0  0
   31.5400   28.6100   34.0300 C   0  0  0  0  0  0  0  0  0  0  0  0
   31.0900   28.2200   32.7700 C   0  0  0  0  0  0  0  0  0  0  0  0
   29.8000   27.7000   32.6000 C   0  0  0  0  0  0  0  0  0  0  0  0
   28.9600   27.5500   33.7100 C   0  0  0  0  0  0  0  0  0  0  0  0
   27.6600   27.0300   33.5900 C   0  0  0  0  0  0  0  0  0  0  0  0
   27.1600   26.7400   32.3400 N   0  0  0  0  0  0  0  0  0  0  0  0
   33.1630   29.2689   34.2260 S   0  0  0  0  0  6  0  0  0  0  0  0
   33.3253   29.8591   35.6001 O   0  0  0  0  0  0  0  0  0  0  0  0
   34.1606   28.1585   34.0537 O   0  0  0  0  0  0  0  0  0  0  0  0
   33.4613   30.5289   32.9781 C   0  0  2  0  0  0  0  0  0  0  0  0
   34.7246   31.3465   33.2444 C   0  0  0  0  0  0  0  0  0  0  0  0
   33.9945   32.6263   33.3731 N   0  0  0  0  0  0  0  0  0  0  0  0
   32.7477   31.8720   33.1265 C   0  0  0  0  0  0  0  0  0  0  0  0
   31.6702   32.1255   34.1801 C   0  0  0  0  0  0  0  0  0  0  0  0
   30.7081   32.5394   33.0677 C   0  0  0  0  0  0  0  0  0  0  0  0
   31.7746   32.2762   32.0067 C   0  0  0  0  0  0  0  0  0  0  0  0
   34.3784   33.5868   32.3193 C   0  0  0  0  0  0  0  0  0  0  0  0
   35.7458   34.2185   32.6487 C   0  0  0  0  0  0  0  0  0  0  0  0
   36.2573   35.2723   31.6203 C   0  0  0  0  0  0  0  0  0  0  0  0
   36.4716   34.6331   30.2311 C   0  0  0  0  0  0  0  0  0  0  0  0
   37.6130   35.8135   32.1224 C   0  0  0  0  0  0  0  0  0  0  0  0
   35.2746   36.4570   31.4962 C   0  0  0  0  0  0  0  0  0  0  0  0
  1  2  1  0
  2  3  2  0
  2  4  1  0
  4  5  2  0
  5  6  1  0
  6  7  2  0
  7  8  1  0
  8  9  2  0
  9 10  1  0
 10 11  2  0
 11 12  1  0
 12 13  2  0
 13 14  1  0
  9 15  1  0
 15 16  2  0
 15 17  2  0
 18 15  1  1
 18 19  1  0
 19 20  1  0
 20 21  1  0
 21 22  1  0
 22 23  1  0
 23 24  1  0
 20 25  1  0
 25 26  1  0
 26 27  1  0
 27 28  1  0
 27 29  1  0
 27 30  1  0
 13  4  1  0
 21 18  1  0
 12  7  1  0
 24 21  1  0
M  END
>  <AAScore>  (1) 
-5.643337018506046

>  <RootName>  (1) 
./4ZLY/04_DeltaGEst/trajectory_05/rank_01/lead_0437

$$$$
