confid_11
     RDKit          3D

 27 30  0  0  0  0  0  0  0  0999 V2000
   24.5500   26.3900   36.2500 N   0  0  0  0  0  0  0  0  0  0  0  0
   25.6000   26.1300   35.4000 C   0  0  0  0  0  0  0  0  0  0  0  0
   25.4300   25.4300   34.4200 O   0  0  0  0  0  0  0  0  0  0  0  0
   26.9800   26.6300   35.7100 C   0  0  0  0  0  0  0  0  0  0  0  0
   27.3200   26.8200   36.9800 N   0  0  0  0  0  0  0  0  0  0  0  0
   28.4700   27.4000   37.3100 N   0  0  0  0  0  0  0  0  0  0  0  0
   29.4000   27.6300   36.3700 C   0  0  0  0  0  0  0  0  0  0  0  0
   30.6600   28.0500   36.8000 C   0  0  0  0  0  0  0  0  0  0  0  0
   31.5700   28.3600   35.7800 C   0  0  0  0  0  0  0  0  0  0  0  0
   31.3700   28.1000   34.4300 C   0  0  0  0  0  0  0  0  0  0  0  0
   30.1200   27.5900   34.0500 C   0  0  0  0  0  0  0  0  0  0  0  0
   29.1500   27.3400   35.0300 C   0  0  0  0  0  0  0  0  0  0  0  0
   27.8800   26.8900   34.6600 C   0  0  0  0  0  0  0  0  0  0  0  0
   27.4800   26.6100   33.3700 N   0  0  0  0  0  0  0  0  0  0  0  0
   23.2036   25.9447   35.9989 C   0  0  0  0  0  0  0  0  0  0  0  0
   22.7261   26.0157   34.7792 N   0  0  0  0  0  0  0  0  0  0  0  0
   21.4515   25.4715   34.3822 C   0  0  0  0  0  0  0  0  0  0  0  0
   20.5873   25.0385   35.3076 C   0  0  0  0  0  0  0  0  0  0  0  0
   19.7803   23.8033   35.0428 C   0  0  0  0  0  0  0  0  0  0  0  0
   18.5310   23.8439   35.2022 O   0  0  0  0  0  0  0  0  0  0  0  0
   20.4542   22.4616   34.6857 C   0  0  0  0  0  0  0  0  0  0  0  0
   21.4888   21.9131   35.7616 C   0  0  0  0  0  0  0  0  0  0  0  0
   22.4209   23.0641   36.2460 C   0  0  0  0  0  0  0  0  0  0  0  0
   22.7594   23.8982   37.3479 O   0  0  0  0  0  0  0  0  0  0  0  0
   22.3726   25.2913   37.1201 C   0  0  2  0  0  0  0  0  0  0  0  0
   20.8489   25.4772   36.7422 C   0  0  0  0  0  0  0  0  0  0  0  0
   22.5974   26.0294   38.4502 C   0  0  0  0  0  0  0  0  0  0  0  0
  1  2  1  0
  2  3  2  0
  2  4  1  0
  4  5  2  0
  5  6  1  0
  6  7  2  0
  7  8  1  0
  8  9  2  0
  9 10  1  0
 10 11  2  0
 11 12  1  0
 12 13  2  0
 13 14  1  0
  1 15  1  0
 15 16  2  0
 16 17  1  0
 17 18  2  0
 18 19  1  0
 19 20  2  0
 19 21  1  0
 21 22  1  0
 22 23  1  0
 23 24  1  0
 24 25  1  0
 25 26  1  0
 25 27  1  1
 13  4  1  0
 25 15  1  0
 12  7  1  0
 26 18  1  0
M  END
>  <AAScore>  (1) 
505.47151655607263

>  <RootName>  (1) 
./4ZLY/04_DeltaGEst/trajectory_01/rank_00/lead_0439

$$$$
