confid_5
     RDKit          3D

 28 31  0  0  0  0  0  0  0  0999 V2000
   24.2000   26.2400   35.6900 N   0  0  0  0  0  0  0  0  0  0  0  0
   24.8500   26.2800   34.4800 C   0  0  0  0  0  0  0  0  0  0  0  0
   24.3100   25.7400   33.5400 O   0  0  0  0  0  0  0  0  0  0  0  0
   26.1800   26.9700   34.4700 C   0  0  0  0  0  0  0  0  0  0  0  0
   26.6500   27.6000   35.5500 N   0  0  0  0  0  0  0  0  0  0  0  0
   27.7900   28.2700   35.6200 N   0  0  0  0  0  0  0  0  0  0  0  0
   28.5400   28.3000   34.5100 C   0  0  0  0  0  0  0  0  0  0  0  0
   29.7700   28.9400   34.5600 C   0  0  0  0  0  0  0  0  0  0  0  0
   30.7000   28.8900   33.5000 C   0  0  0  0  0  0  0  0  0  0  0  0
   30.3700   28.1400   32.3700 C   0  0  0  0  0  0  0  0  0  0  0  0
   29.1200   27.5200   32.2800 C   0  0  0  0  0  0  0  0  0  0  0  0
   28.2100   27.6100   33.3300 C   0  0  0  0  0  0  0  0  0  0  0  0
   26.9700   26.9700   33.3100 C   0  0  0  0  0  0  0  0  0  0  0  0
   26.5300   26.2400   32.2200 N   0  0  0  0  0  0  0  0  0  0  0  0
   30.1274   29.7013   35.7255 N   0  0  0  0  0  0  0  0  0  0  0  0
   29.4707   30.9917   35.9710 C   0  0  0  0  0  0  0  0  0  0  0  0
   29.9753   31.6433   37.2637 C   0  0  0  0  0  0  0  0  0  0  0  0
   31.4458   31.6033   37.3251 N   0  0  0  0  0  0  0  0  0  0  0  0
   32.1653   32.7000   37.9352 C   0  0  0  0  0  0  0  0  0  0  0  0
   33.5430   32.8838   37.7208 C   0  0  0  0  0  0  0  0  0  0  0  0
   34.2056   33.9565   38.3254 C   0  0  0  0  0  0  0  0  0  0  0  0
   35.9327   34.1509   38.0390 Cl  0  0  0  0  0  0  0  0  0  0  0  0
   33.4901   34.8513   39.1427 C   0  0  0  0  0  0  0  0  0  0  0  0
   34.1726   36.0097   39.8167 C   0  0  0  0  0  0  0  0  0  0  0  0
   32.1191   34.6329   39.3354 C   0  0  0  0  0  0  0  0  0  0  0  0
   31.5013   33.5823   38.7339 N   0  0  0  0  0  0  0  0  0  0  0  0
   32.1618   30.3813   36.9120 C   0  0  0  0  0  0  0  0  0  0  0  0
   31.1966   29.2309   36.6099 C   0  0  0  0  0  0  0  0  0  0  0  0
  1  2  1  0
  2  3  2  0
  2  4  1  0
  4  5  2  0
  5  6  1  0
  6  7  2  0
  7  8  1  0
  8  9  2  0
  9 10  1  0
 10 11  2  0
 11 12  1  0
 12 13  2  0
 13 14  1  0
  8 15  1  0
 15 16  1  0
 16 17  1  0
 17 18  1  0
 18 19  1  0
 19 20  2  0
 20 21  1  0
 21 22  1  0
 21 23  2  0
 23 24  1  0
 23 25  1  0
 25 26  2  0
 18 27  1  0
 27 28  1  0
 13  4  1  0
 28 15  1  0
 12  7  1  0
 26 19  1  0
M  END
>  <AAScore>  (1) 
-8.440319322753233

>  <RootName>  (1) 
./4ZLY/04_DeltaGEst/trajectory_04/rank_01/lead_0181

$$$$
