confid_8
     RDKit          3D

 27 30  0  0  0  0  0  0  0  0999 V2000
   24.2000   26.2400   35.6900 N   0  0  0  0  0  0  0  0  0  0  0  0
   24.8500   26.2800   34.4800 C   0  0  0  0  0  0  0  0  0  0  0  0
   24.3100   25.7400   33.5400 O   0  0  0  0  0  0  0  0  0  0  0  0
   26.1800   26.9700   34.4700 C   0  0  0  0  0  0  0  0  0  0  0  0
   26.6500   27.6000   35.5500 N   0  0  0  0  0  0  0  0  0  0  0  0
   27.7900   28.2700   35.6200 N   0  0  0  0  0  0  0  0  0  0  0  0
   28.5400   28.3000   34.5100 C   0  0  0  0  0  0  0  0  0  0  0  0
   29.7700   28.9400   34.5600 C   0  0  0  0  0  0  0  0  0  0  0  0
   30.7000   28.8900   33.5000 C   0  0  0  0  0  0  0  0  0  0  0  0
   30.3700   28.1400   32.3700 C   0  0  0  0  0  0  0  0  0  0  0  0
   29.1200   27.5200   32.2800 C   0  0  0  0  0  0  0  0  0  0  0  0
   28.2100   27.6100   33.3300 C   0  0  0  0  0  0  0  0  0  0  0  0
   26.9700   26.9700   33.3100 C   0  0  0  0  0  0  0  0  0  0  0  0
   26.5300   26.2400   32.2200 N   0  0  0  0  0  0  0  0  0  0  0  0
   22.7684   26.2189   35.8599 C   0  0  0  0  0  0  0  0  0  0  0  0
   22.3195   25.7036   36.9724 N   0  0  0  0  0  0  0  0  0  0  0  0
   21.0208   25.5013   37.5575 C   0  0  0  0  0  0  0  0  0  0  0  0
   19.8361   25.7669   36.9998 C   0  0  0  0  0  0  0  0  0  0  0  0
   18.6708   25.6489   37.7343 O   0  0  0  0  0  0  0  0  0  0  0  0
   17.5406   26.0831   37.0057 C   0  0  0  0  0  0  0  0  0  0  0  0
   18.1172   26.7958   35.7794 C   0  0  0  0  0  0  0  0  0  0  0  0
   19.5493   26.2301   35.6119 C   0  0  2  0  0  0  0  0  0  0  0  0
   19.5033   25.0681   34.6332 C   0  0  0  0  0  0  0  0  0  0  0  0
   19.7785   23.8933   35.0025 O   0  0  0  0  0  0  0  0  0  0  0  0
   19.1589   25.3038   33.3046 O   0  0  0  0  0  0  0  0  0  0  0  0
   20.5330   27.3308   35.1765 C   0  0  0  0  0  0  0  0  0  0  0  0
   21.8979   26.7851   34.7565 C   0  0  0  0  0  0  0  0  0  0  0  0
  1  2  1  0
  2  3  2  0
  2  4  1  0
  4  5  2  0
  5  6  1  0
  6  7  2  0
  7  8  1  0
  8  9  2  0
  9 10  1  0
 10 11  2  0
 11 12  1  0
 12 13  2  0
 13 14  1  0
  1 15  1  0
 15 16  2  0
 16 17  1  0
 17 18  2  0
 18 19  1  0
 19 20  1  0
 20 21  1  0
 21 22  1  0
 22 23  1  6
 23 24  2  0
 23 25  1  0
 22 26  1  0
 26 27  1  0
 13  4  1  0
 27 15  1  0
 12  7  1  0
 22 18  1  0
M  END
>  <AAScore>  (1) 
1097.165814063745

>  <RootName>  (1) 
./4ZLY/04_DeltaGEst/trajectory_04/rank_00/lead_0197

$$$$
