confid_17
     RDKit          3D

 30 33  0  0  0  0  0  0  0  0999 V2000
   24.2000   26.2400   35.6900 N   0  0  0  0  0  0  0  0  0  0  0  0
   24.8500   26.2800   34.4800 C   0  0  0  0  0  0  0  0  0  0  0  0
   24.3100   25.7400   33.5400 O   0  0  0  0  0  0  0  0  0  0  0  0
   26.1800   26.9700   34.4700 C   0  0  0  0  0  0  0  0  0  0  0  0
   26.6500   27.6000   35.5500 N   0  0  0  0  0  0  0  0  0  0  0  0
   27.7900   28.2700   35.6200 N   0  0  0  0  0  0  0  0  0  0  0  0
   28.5400   28.3000   34.5100 C   0  0  0  0  0  0  0  0  0  0  0  0
   29.7700   28.9400   34.5600 C   0  0  0  0  0  0  0  0  0  0  0  0
   30.7000   28.8900   33.5000 C   0  0  0  0  0  0  0  0  0  0  0  0
   30.3700   28.1400   32.3700 C   0  0  0  0  0  0  0  0  0  0  0  0
   29.1200   27.5200   32.2800 C   0  0  0  0  0  0  0  0  0  0  0  0
   28.2100   27.6100   33.3300 C   0  0  0  0  0  0  0  0  0  0  0  0
   26.9700   26.9700   33.3100 C   0  0  0  0  0  0  0  0  0  0  0  0
   26.5300   26.2400   32.2200 N   0  0  0  0  0  0  0  0  0  0  0  0
   30.1347   29.6932   35.7319 N   0  0  0  0  0  0  0  0  0  0  0  0
   29.3880   30.9044   36.0883 C   0  0  0  0  0  0  0  0  0  0  0  0
   30.2411   31.8201   36.9806 C   0  0  0  0  0  0  0  0  0  0  0  0
   31.6449   31.8680   36.5174 N   0  0  0  0  0  0  0  0  0  0  0  0
   31.7689   32.5277   35.1979 C   0  0  0  0  0  0  0  0  0  0  0  0
   33.1302   33.2209   35.0726 C   0  0  0  0  0  0  0  0  0  0  0  0
   33.2730   33.8638   33.7175 C   0  0  0  0  0  0  0  0  0  0  0  0
   32.9175   35.2112   33.5368 C   0  0  0  0  0  0  0  0  0  0  0  0
   33.0154   35.8033   32.2743 C   0  0  0  0  0  0  0  0  0  0  0  0
   33.4579   35.0540   31.1815 C   0  0  0  0  0  0  0  0  0  0  0  0
   33.7997   33.7089   31.3474 C   0  0  0  0  0  0  0  0  0  0  0  0
   34.2191   32.9831   30.2814 F   0  0  0  0  0  0  0  0  0  0  0  0
   33.7042   33.1104   32.6091 C   0  0  0  0  0  0  0  0  0  0  0  0
   34.0250   31.7987   32.7502 F   0  0  0  0  0  0  0  0  0  0  0  0
   32.3084   30.5345   36.5521 C   0  0  0  0  0  0  0  0  0  0  0  0
   31.3321   29.3422   36.4987 C   0  0  0  0  0  0  0  0  0  0  0  0
  1  2  1  0
  2  3  2  0
  2  4  1  0
  4  5  2  0
  5  6  1  0
  6  7  2  0
  7  8  1  0
  8  9  2  0
  9 10  1  0
 10 11  2  0
 11 12  1  0
 12 13  2  0
 13 14  1  0
  8 15  1  0
 15 16  1  0
 16 17  1  0
 17 18  1  0
 18 19  1  0
 19 20  1  0
 20 21  1  0
 21 22  2  0
 22 23  1  0
 23 24  2  0
 24 25  1  0
 25 26  1  0
 25 27  2  0
 27 28  1  0
 18 29  1  0
 29 30  1  0
 13  4  1  0
 30 15  1  0
 12  7  1  0
 27 21  1  0
M  END
>  <AAScore>  (1) 
0.8773507803098198

>  <RootName>  (1) 
./4ZLY/04_DeltaGEst/trajectory_04/rank_01/lead_0092

$$$$
