confid_12
     RDKit          3D

 28 31  0  0  0  0  0  0  0  0999 V2000
   24.6900   26.1200   35.5300 N   0  0  0  0  0  0  0  0  0  0  0  0
   25.6600   25.6700   34.6600 C   0  0  0  0  0  0  0  0  0  0  0  0
   25.2400   25.0100   33.7200 O   0  0  0  0  0  0  0  0  0  0  0  0
   27.0300   26.2200   34.8800 C   0  0  0  0  0  0  0  0  0  0  0  0
   27.3500   26.7300   36.0700 N   0  0  0  0  0  0  0  0  0  0  0  0
   28.5700   27.1800   36.3300 N   0  0  0  0  0  0  0  0  0  0  0  0
   29.5300   27.1100   35.3900 C   0  0  0  0  0  0  0  0  0  0  0  0
   30.8300   27.5700   35.6500 C   0  0  0  0  0  0  0  0  0  0  0  0
   31.8500   27.5400   34.6900 C   0  0  0  0  0  0  0  0  0  0  0  0
   31.5100   27.1200   33.4000 C   0  0  0  0  0  0  0  0  0  0  0  0
   30.2200   26.6300   33.1100 C   0  0  0  0  0  0  0  0  0  0  0  0
   29.2400   26.6600   34.1000 C   0  0  0  0  0  0  0  0  0  0  0  0
   27.9300   26.2600   33.8100 C   0  0  0  0  0  0  0  0  0  0  0  0
   27.5200   25.7100   32.6100 N   0  0  0  0  0  0  0  0  0  0  0  0
   23.2735   26.1362   35.2676 C   0  0  0  0  0  0  0  0  0  0  0  0
   22.4171   25.9451   36.3002 N   0  0  0  0  0  0  0  0  0  0  0  0
   21.0724   25.9568   36.1368 C   0  0  0  0  0  0  0  0  0  0  0  0
   20.4963   26.1796   34.8725 C   0  0  0  0  0  0  0  0  0  0  0  0
   18.9957   25.9987   34.7730 C   0  0  0  0  0  0  0  0  0  0  0  0
   18.3262   27.0292   33.9197 C   0  0  0  0  0  0  0  0  0  0  0  0
   17.6171   27.9205   34.4629 O   0  0  0  0  0  0  0  0  0  0  0  0
   18.4679   26.9888   32.4940 N   0  0  0  0  0  0  0  0  0  0  0  0
   17.5539   27.7662   31.6504 C   0  0  0  0  0  0  0  0  0  0  0  0
   19.5541   26.1999   31.9030 C   0  0  0  0  0  0  0  0  0  0  0  0
   20.9295   26.7421   32.3338 C   0  0  2  0  0  0  0  0  0  0  0  0
   21.3676   26.4037   33.7608 C   0  0  0  0  0  0  0  0  0  0  0  0
   22.7577   26.4033   33.9922 C   0  0  0  0  0  0  0  0  0  0  0  0
   21.0399   28.2550   32.0839 C   0  0  0  0  0  0  0  0  0  0  0  0
  1  2  1  0
  2  3  2  0
  2  4  1  0
  4  5  2  0
  5  6  1  0
  6  7  2  0
  7  8  1  0
  8  9  2  0
  9 10  1  0
 10 11  2  0
 11 12  1  0
 12 13  2  0
 13 14  1  0
  1 15  1  0
 15 16  2  0
 16 17  1  0
 17 18  2  0
 18 19  1  0
 19 20  1  0
 20 21  2  0
 20 22  1  0
 22 23  1  0
 22 24  1  0
 24 25  1  0
 25 26  1  0
 26 27  2  0
 25 28  1  1
 13  4  1  0
 27 15  1  0
 12  7  1  0
 26 18  1  0
M  END
>  <AAScore>  (1) 
434.7410749124198

>  <RootName>  (1) 
./4ZLY/04_DeltaGEst/trajectory_02/rank_00/lead_0342

$$$$
