confid_13
     RDKit          3D

 27 31  0  0  0  0  0  0  0  0999 V2000
   25.3300   26.2600   34.7600 N   0  0  0  0  0  0  0  0  0  0  0  0
   26.1200   25.9200   33.6900 C   0  0  0  0  0  0  0  0  0  0  0  0
   25.6300   25.1100   32.9400 O   0  0  0  0  0  0  0  0  0  0  0  0
   27.5200   26.3800   33.4600 C   0  0  0  0  0  0  0  0  0  0  0  0
   28.1600   26.6300   34.6100 N   0  0  0  0  0  0  0  0  0  0  0  0
   29.4800   26.8500   34.5700 N   0  0  0  0  0  0  0  0  0  0  0  0
   30.1900   26.7800   33.4400 C   0  0  0  0  0  0  0  0  0  0  0  0
   31.5600   27.0500   33.5000 C   0  0  0  0  0  0  0  0  0  0  0  0
   32.2700   27.2400   32.3100 C   0  0  0  0  0  0  0  0  0  0  0  0
   31.6100   27.2500   31.0800 C   0  0  0  0  0  0  0  0  0  0  0  0
   30.2700   26.8700   31.0600 C   0  0  0  0  0  0  0  0  0  0  0  0
   29.5100   26.6900   32.2300 C   0  0  0  0  0  0  0  0  0  0  0  0
   28.1400   26.4100   32.2000 C   0  0  0  0  0  0  0  0  0  0  0  0
   27.4300   26.1300   31.0500 N   0  0  0  0  0  0  0  0  0  0  0  0
   26.4283   27.0883   30.5464 C   0  0  0  0  0  0  0  0  0  0  0  0
   26.7261   27.4682   29.0836 C   0  0  0  0  0  0  0  0  0  0  0  0
   27.0924   26.2441   28.2936 C   0  0  0  0  0  0  0  0  0  0  0  0
   27.1868   26.1295   26.9496 N   0  0  0  0  0  0  0  0  0  0  0  0
   27.6756   24.9306   26.6474 N   0  0  0  0  0  0  0  0  0  0  0  0
   27.8870   24.2772   27.8079 C   0  0  0  0  0  0  0  0  0  0  0  0
   28.4196   22.9569   27.8918 N   0  0  0  0  0  0  0  0  0  0  0  0
   27.5481   25.0862   28.8703 C   0  0  0  0  0  0  0  0  0  0  0  0
   27.6397   24.8539   30.3446 C   0  0  0  0  0  0  0  0  0  0  0  0
   26.9266   27.1861   25.9627 C   0  0  0  0  0  0  0  0  0  0  0  0
   28.1899   27.6022   25.2158 C   0  0  0  0  0  0  0  0  0  0  0  0
   27.5957   27.0663   23.9194 C   0  0  0  0  0  0  0  0  0  0  0  0
   26.3275   26.6609   24.6596 C   0  0  0  0  0  0  0  0  0  0  0  0
  1  2  1  0
  2  3  2  0
  2  4  1  0
  4  5  2  0
  5  6  1  0
  6  7  2  0
  7  8  1  0
  8  9  2  0
  9 10  1  0
 10 11  2  0
 11 12  1  0
 12 13  2  0
 13 14  1  0
 14 15  1  0
 15 16  1  0
 16 17  1  0
 17 18  1  0
 18 19  1  0
 19 20  2  0
 20 21  1  0
 20 22  1  0
 22 23  1  0
 18 24  1  0
 24 25  1  0
 25 26  1  0
 26 27  1  0
 13  4  1  0
 23 14  1  0
 27 24  1  0
 12  7  1  0
 22 17  2  0
M  END
>  <AAScore>  (1) 
2.488570694207316

>  <RootName>  (1) 
./4ZLY/04_DeltaGEst/trajectory_03/rank_01/lead_0398

$$$$
