confid_3
     RDKit          3D

 28 31  0  0  0  0  0  0  0  0999 V2000
   24.6900   26.1200   35.5300 N   0  0  0  0  0  0  0  0  0  0  0  0
   25.6600   25.6700   34.6600 C   0  0  0  0  0  0  0  0  0  0  0  0
   25.2400   25.0100   33.7200 O   0  0  0  0  0  0  0  0  0  0  0  0
   27.0300   26.2200   34.8800 C   0  0  0  0  0  0  0  0  0  0  0  0
   27.3500   26.7300   36.0700 N   0  0  0  0  0  0  0  0  0  0  0  0
   28.5700   27.1800   36.3300 N   0  0  0  0  0  0  0  0  0  0  0  0
   29.5300   27.1100   35.3900 C   0  0  0  0  0  0  0  0  0  0  0  0
   30.8300   27.5700   35.6500 C   0  0  0  0  0  0  0  0  0  0  0  0
   31.8500   27.5400   34.6900 C   0  0  0  0  0  0  0  0  0  0  0  0
   31.5100   27.1200   33.4000 C   0  0  0  0  0  0  0  0  0  0  0  0
   30.2200   26.6300   33.1100 C   0  0  0  0  0  0  0  0  0  0  0  0
   29.2400   26.6600   34.1000 C   0  0  0  0  0  0  0  0  0  0  0  0
   27.9300   26.2600   33.8100 C   0  0  0  0  0  0  0  0  0  0  0  0
   27.5200   25.7100   32.6100 N   0  0  0  0  0  0  0  0  0  0  0  0
   31.1485   28.0523   36.9661 N   0  0  0  0  0  0  0  0  0  0  0  0
   31.3378   27.0897   38.0560 C   0  0  0  0  0  0  0  0  0  0  0  0
   30.9141   27.6993   39.3953 C   0  0  0  0  0  0  0  0  0  0  0  0
   31.5845   29.0337   39.6293 C   0  0  0  0  0  0  0  0  0  0  0  0
   31.8561   29.4663   40.9380 C   0  0  0  0  0  0  0  0  0  0  0  0
   31.5690   28.6740   42.0021 F   0  0  0  0  0  0  0  0  0  0  0  0
   32.4173   30.7245   41.1620 C   0  0  0  0  0  0  0  0  0  0  0  0
   32.7089   31.5750   40.0871 C   0  0  0  0  0  0  0  0  0  0  0  0
   32.4093   31.1654   38.7773 C   0  0  0  0  0  0  0  0  0  0  0  0
   32.6778   32.0035   37.7419 F   0  0  0  0  0  0  0  0  0  0  0  0
   31.8443   29.8952   38.5414 C   0  0  0  0  0  0  0  0  0  0  0  0
   31.5179   29.4283   37.1728 C   0  0  0  0  0  0  0  0  0  0  0  0
   31.5360   30.2308   36.1994 O   0  0  0  0  0  0  0  0  0  0  0  0
   33.2927   32.9362   40.3367 C   0  0  0  0  0  0  0  0  0  0  0  0
  1  2  1  0
  2  3  2  0
  2  4  1  0
  4  5  2  0
  5  6  1  0
  6  7  2  0
  7  8  1  0
  8  9  2  0
  9 10  1  0
 10 11  2  0
 11 12  1  0
 12 13  2  0
 13 14  1  0
  8 15  1  0
 15 16  1  0
 16 17  1  0
 17 18  1  0
 18 19  2  0
 19 20  1  0
 19 21  1  0
 21 22  2  0
 22 23  1  0
 23 24  1  0
 23 25  2  0
 25 26  1  0
 26 27  2  0
 22 28  1  0
 13  4  1  0
 26 15  1  0
 12  7  1  0
 25 18  1  0
M  END
>  <AAScore>  (1) 
-1.1794115423835645

>  <RootName>  (1) 
./4ZLY/04_DeltaGEst/trajectory_02/rank_01/lead_0134

$$$$
