confid_3
     RDKit          3D

 27 30  0  0  0  0  0  0  0  0999 V2000
   24.2000   26.2400   35.6900 N   0  0  0  0  0  0  0  0  0  0  0  0
   24.8500   26.2800   34.4800 C   0  0  0  0  0  0  0  0  0  0  0  0
   24.3100   25.7400   33.5400 O   0  0  0  0  0  0  0  0  0  0  0  0
   26.1800   26.9700   34.4700 C   0  0  0  0  0  0  0  0  0  0  0  0
   26.6500   27.6000   35.5500 N   0  0  0  0  0  0  0  0  0  0  0  0
   27.7900   28.2700   35.6200 N   0  0  0  0  0  0  0  0  0  0  0  0
   28.5400   28.3000   34.5100 C   0  0  0  0  0  0  0  0  0  0  0  0
   29.7700   28.9400   34.5600 C   0  0  0  0  0  0  0  0  0  0  0  0
   30.7000   28.8900   33.5000 C   0  0  0  0  0  0  0  0  0  0  0  0
   30.3700   28.1400   32.3700 C   0  0  0  0  0  0  0  0  0  0  0  0
   29.1200   27.5200   32.2800 C   0  0  0  0  0  0  0  0  0  0  0  0
   28.2100   27.6100   33.3300 C   0  0  0  0  0  0  0  0  0  0  0  0
   26.9700   26.9700   33.3100 C   0  0  0  0  0  0  0  0  0  0  0  0
   26.5300   26.2400   32.2200 N   0  0  0  0  0  0  0  0  0  0  0  0
   30.1416   29.6847   35.7367 N   0  0  0  0  0  0  0  0  0  0  0  0
   31.3340   29.3356   36.5012 C   0  0  0  0  0  0  0  0  0  0  0  0
   32.2908   30.5263   36.5269 C   0  0  0  0  0  0  0  0  0  0  0  0
   31.5936   31.8527   36.7879 C   0  0  0  0  0  0  0  0  0  0  0  0
   32.3447   33.0168   37.1180 C   0  0  0  0  0  0  0  0  0  0  0  0
   33.8605   33.0445   37.1677 C   0  0  0  0  0  0  0  0  0  0  0  0
   34.3753   33.9334   36.1947 O   0  0  0  0  0  0  0  0  0  0  0  0
   34.4588   33.2883   34.9413 C   0  0  0  0  0  0  0  0  0  0  0  0
   31.6728   34.2251   37.3659 C   0  0  0  0  0  0  0  0  0  0  0  0
   30.2878   34.3064   37.2626 C   0  0  0  0  0  0  0  0  0  0  0  0
   29.5489   33.1887   36.8895 C   0  0  0  0  0  0  0  0  0  0  0  0
   30.1846   31.9673   36.6292 C   0  0  0  0  0  0  0  0  0  0  0  0
   29.3238   30.7958   36.2222 C   0  0  0  0  0  0  0  0  0  0  0  0
  1  2  1  0
  2  3  2  0
  2  4  1  0
  4  5  2  0
  5  6  1  0
  6  7  2  0
  7  8  1  0
  8  9  2  0
  9 10  1  0
 10 11  2  0
 11 12  1  0
 12 13  2  0
 13 14  1  0
  8 15  1  0
 15 16  1  0
 16 17  1  0
 17 18  1  0
 18 19  2  0
 19 20  1  0
 20 21  1  0
 21 22  1  0
 19 23  1  0
 23 24  2  0
 24 25  1  0
 25 26  2  0
 26 27  1  0
 13  4  1  0
 27 15  1  0
 12  7  1  0
 26 18  1  0
M  END
>  <AAScore>  (1) 
-7.955178927269386

>  <RootName>  (1) 
./4ZLY/04_DeltaGEst/trajectory_04/rank_01/lead_0161

$$$$
