confid_6
     RDKit          3D

 28 31  0  0  0  0  0  0  0  0999 V2000
   24.4800   26.1000   36.1300 N   0  0  0  0  0  0  0  0  0  0  0  0
   25.2500   26.2500   34.9900 C   0  0  0  0  0  0  0  0  0  0  0  0
   24.7400   25.7600   33.9900 O   0  0  0  0  0  0  0  0  0  0  0  0
   26.5900   26.8900   34.9600 C   0  0  0  0  0  0  0  0  0  0  0  0
   27.0600   27.2400   36.1600 N   0  0  0  0  0  0  0  0  0  0  0  0
   28.3000   27.7100   36.2400 N   0  0  0  0  0  0  0  0  0  0  0  0
   29.0500   27.9600   35.1500 C   0  0  0  0  0  0  0  0  0  0  0  0
   30.3400   28.4900   35.2600 C   0  0  0  0  0  0  0  0  0  0  0  0
   31.1100   28.8200   34.1400 C   0  0  0  0  0  0  0  0  0  0  0  0
   30.5200   28.6700   32.8800 C   0  0  0  0  0  0  0  0  0  0  0  0
   29.2900   28.0200   32.7700 C   0  0  0  0  0  0  0  0  0  0  0  0
   28.5200   27.7100   33.8900 C   0  0  0  0  0  0  0  0  0  0  0  0
   27.2700   27.0800   33.7600 C   0  0  0  0  0  0  0  0  0  0  0  0
   26.7500   26.8800   32.4900 N   0  0  0  0  0  0  0  0  0  0  0  0
   23.4924   25.0699   36.3372 C   0  0  0  0  0  0  0  0  0  0  0  0
   23.4420   23.9825   35.5266 N   0  0  0  0  0  0  0  0  0  0  0  0
   22.5361   22.9902   35.7061 C   0  0  0  0  0  0  0  0  0  0  0  0
   21.5976   23.0470   36.7533 C   0  0  0  0  0  0  0  0  0  0  0  0
   20.6670   21.8635   36.9113 C   0  0  0  0  0  0  0  0  0  0  0  0
   19.2748   22.2881   37.0732 N   0  0  0  0  0  0  0  0  0  0  0  0
   18.3177   22.1074   35.9747 C   0  0  0  0  0  0  0  0  0  0  0  0
   17.5722   20.7858   36.1259 C   0  0  0  0  0  0  0  0  0  0  0  0
   18.8488   22.8227   38.3355 C   0  0  0  0  0  0  0  0  0  0  0  0
   17.6208   22.9668   38.5870 O   0  0  0  0  0  0  0  0  0  0  0  0
   19.8654   23.2694   39.3387 C   0  0  0  0  0  0  0  0  0  0  0  0
   20.6701   24.4455   38.7847 C   0  0  0  0  0  0  0  0  0  0  0  0
   21.6424   24.1627   37.6436 C   0  0  0  0  0  0  0  0  0  0  0  0
   22.5976   25.1684   37.4061 C   0  0  0  0  0  0  0  0  0  0  0  0
  1  2  1  0
  2  3  2  0
  2  4  1  0
  4  5  2  0
  5  6  1  0
  6  7  2  0
  7  8  1  0
  8  9  2  0
  9 10  1  0
 10 11  2  0
 11 12  1  0
 12 13  2  0
 13 14  1  0
  1 15  1  0
 15 16  2  0
 16 17  1  0
 17 18  2  0
 18 19  1  0
 19 20  1  0
 20 21  1  0
 21 22  1  0
 20 23  1  0
 23 24  2  0
 23 25  1  0
 25 26  1  0
 26 27  1  0
 27 28  2  0
 13  4  1  0
 28 15  1  0
 12  7  1  0
 27 18  1  0
M  END
>  <AAScore>  (1) 
397.0200368361917

>  <RootName>  (1) 
./4ZLY/04_DeltaGEst/trajectory_00/rank_01/lead_0296

$$$$
