confid_9
     RDKit          3D

 28 32  0  0  0  0  0  0  0  0999 V2000
   24.2000   26.2400   35.6900 N   0  0  0  0  0  0  0  0  0  0  0  0
   24.8500   26.2800   34.4800 C   0  0  0  0  0  0  0  0  0  0  0  0
   24.3100   25.7400   33.5400 O   0  0  0  0  0  0  0  0  0  0  0  0
   26.1800   26.9700   34.4700 C   0  0  0  0  0  0  0  0  0  0  0  0
   26.6500   27.6000   35.5500 N   0  0  0  0  0  0  0  0  0  0  0  0
   27.7900   28.2700   35.6200 N   0  0  0  0  0  0  0  0  0  0  0  0
   28.5400   28.3000   34.5100 C   0  0  0  0  0  0  0  0  0  0  0  0
   29.7700   28.9400   34.5600 C   0  0  0  0  0  0  0  0  0  0  0  0
   30.7000   28.8900   33.5000 C   0  0  0  0  0  0  0  0  0  0  0  0
   30.3700   28.1400   32.3700 C   0  0  0  0  0  0  0  0  0  0  0  0
   29.1200   27.5200   32.2800 C   0  0  0  0  0  0  0  0  0  0  0  0
   28.2100   27.6100   33.3300 C   0  0  0  0  0  0  0  0  0  0  0  0
   26.9700   26.9700   33.3100 C   0  0  0  0  0  0  0  0  0  0  0  0
   26.5300   26.2400   32.2200 N   0  0  0  0  0  0  0  0  0  0  0  0
   23.1913   25.2736   36.0382 C   0  0  0  0  0  0  0  0  0  0  0  0
   23.1118   24.1470   35.3803 N   0  0  0  0  0  0  0  0  0  0  0  0
   22.1826   23.0946   35.6639 C   0  0  0  0  0  0  0  0  0  0  0  0
   20.8772   23.3325   35.6761 C   0  0  0  0  0  0  0  0  0  0  0  0
   19.5892   22.6579   36.0411 C   0  0  0  0  0  0  0  0  0  0  0  0
   18.7894   23.7702   35.7896 O   0  0  0  0  0  0  0  0  0  0  0  0
   19.9273   24.4572   35.3727 C   0  0  1  0  0  0  0  0  0  0  0  0
   20.1522   25.7683   36.1576 C   0  0  0  0  0  0  0  0  0  0  0  0
   21.0818   25.6517   37.3409 C   0  0  0  0  0  0  0  0  0  0  0  0
   22.3988   25.5037   37.2690 C   0  0  0  0  0  0  0  0  0  0  0  0
   22.9871   25.6117   38.5130 O   0  0  0  0  0  0  0  0  0  0  0  0
   22.0154   25.8440   39.5200 C   0  0  0  0  0  0  0  0  0  0  0  0
   20.6698   25.8767   38.7631 C   0  0  2  0  0  0  0  0  0  0  0  0
   19.7097   24.7850   39.2431 C   0  0  0  0  0  0  0  0  0  0  0  0
  1  2  1  0
  2  3  2  0
  2  4  1  0
  4  5  2  0
  5  6  1  0
  6  7  2  0
  7  8  1  0
  8  9  2  0
  9 10  1  0
 10 11  2  0
 11 12  1  0
 12 13  2  0
 13 14  1  0
  1 15  1  0
 15 16  2  0
 16 17  1  0
 17 18  2  0
 18 19  1  0
 19 20  1  0
 20 21  1  0
 21 22  1  1
 22 23  1  0
 23 24  2  0
 24 25  1  0
 25 26  1  0
 26 27  1  0
 27 28  1  1
 13  4  1  0
 24 15  1  0
 12  7  1  0
 21 18  1  0
 27 23  1  0
M  END
>  <AAScore>  (1) 
17385.653839892053

>  <RootName>  (1) 
./4ZLY/04_DeltaGEst/trajectory_04/rank_00/lead_0112

$$$$
