confid_0
     RDKit          3D

 26 29  0  0  0  0  0  0  0  0999 V2000
   24.2000   26.2400   35.6900 N   0  0  0  0  0  0  0  0  0  0  0  0
   24.8500   26.2800   34.4800 C   0  0  0  0  0  0  0  0  0  0  0  0
   24.3100   25.7400   33.5400 O   0  0  0  0  0  0  0  0  0  0  0  0
   26.1800   26.9700   34.4700 C   0  0  0  0  0  0  0  0  0  0  0  0
   26.6500   27.6000   35.5500 N   0  0  0  0  0  0  0  0  0  0  0  0
   27.7900   28.2700   35.6200 N   0  0  0  0  0  0  0  0  0  0  0  0
   28.5400   28.3000   34.5100 C   0  0  0  0  0  0  0  0  0  0  0  0
   29.7700   28.9400   34.5600 C   0  0  0  0  0  0  0  0  0  0  0  0
   30.7000   28.8900   33.5000 C   0  0  0  0  0  0  0  0  0  0  0  0
   30.3700   28.1400   32.3700 C   0  0  0  0  0  0  0  0  0  0  0  0
   29.1200   27.5200   32.2800 C   0  0  0  0  0  0  0  0  0  0  0  0
   28.2100   27.6100   33.3300 C   0  0  0  0  0  0  0  0  0  0  0  0
   26.9700   26.9700   33.3100 C   0  0  0  0  0  0  0  0  0  0  0  0
   26.5300   26.2400   32.2200 N   0  0  0  0  0  0  0  0  0  0  0  0
   30.1470   29.6539   35.7494 N   0  0  0  0  0  0  0  0  0  0  0  0
   30.6016   28.9839   36.9639 C   0  0  0  0  0  0  0  0  0  0  0  0
   31.2493   30.0783   37.8320 C   0  0  0  0  0  0  0  0  0  0  0  0
   31.1613   31.3154   36.9945 C   0  0  0  0  0  0  0  0  0  0  0  0
   31.6447   32.5824   37.3561 C   0  0  0  0  0  0  0  0  0  0  0  0
   31.4258   33.8251   36.2220 S   0  0  0  0  0  0  0  0  0  0  0  0
   30.6127   33.2901   34.8355 C   0  0  0  0  0  0  0  0  0  0  0  0
   30.3572   34.0874   33.8957 O   0  0  0  0  0  0  0  0  0  0  0  0
   30.2348   31.9481   34.7626 C   0  0  0  0  0  0  0  0  0  0  0  0
   30.5162   31.0267   35.7957 C   0  0  0  0  0  0  0  0  0  0  0  0
   32.3833   32.8480   38.6383 C   0  0  0  0  0  0  0  0  0  0  0  0
   33.8824   32.6382   38.4528 C   0  0  0  0  0  0  0  0  0  0  0  0
  1  2  1  0
  2  3  2  0
  2  4  1  0
  4  5  2  0
  5  6  1  0
  6  7  2  0
  7  8  1  0
  8  9  2  0
  9 10  1  0
 10 11  2  0
 11 12  1  0
 12 13  2  0
 13 14  1  0
  8 15  1  0
 15 16  1  0
 16 17  1  0
 17 18  1  0
 18 19  2  0
 19 20  1  0
 20 21  1  0
 21 22  2  0
 21 23  1  0
 23 24  2  0
 19 25  1  0
 25 26  1  0
 13  4  1  0
 24 15  1  0
 12  7  1  0
 24 18  1  0
M  END
>  <AAScore>  (1) 
-1.7788659033358205

>  <RootName>  (1) 
./4ZLY/04_DeltaGEst/trajectory_04/rank_01/lead_0004

$$$$
