confid_12
     RDKit          3D

 28 31  0  0  0  0  0  0  0  0999 V2000
   24.5500   26.3900   36.2500 N   0  0  0  0  0  0  0  0  0  0  0  0
   25.6000   26.1300   35.4000 C   0  0  0  0  0  0  0  0  0  0  0  0
   25.4300   25.4300   34.4200 O   0  0  0  0  0  0  0  0  0  0  0  0
   26.9800   26.6300   35.7100 C   0  0  0  0  0  0  0  0  0  0  0  0
   27.3200   26.8200   36.9800 N   0  0  0  0  0  0  0  0  0  0  0  0
   28.4700   27.4000   37.3100 N   0  0  0  0  0  0  0  0  0  0  0  0
   29.4000   27.6300   36.3700 C   0  0  0  0  0  0  0  0  0  0  0  0
   30.6600   28.0500   36.8000 C   0  0  0  0  0  0  0  0  0  0  0  0
   31.5700   28.3600   35.7800 C   0  0  0  0  0  0  0  0  0  0  0  0
   31.3700   28.1000   34.4300 C   0  0  0  0  0  0  0  0  0  0  0  0
   30.1200   27.5900   34.0500 C   0  0  0  0  0  0  0  0  0  0  0  0
   29.1500   27.3400   35.0300 C   0  0  0  0  0  0  0  0  0  0  0  0
   27.8800   26.8900   34.6600 C   0  0  0  0  0  0  0  0  0  0  0  0
   27.4800   26.6100   33.3700 N   0  0  0  0  0  0  0  0  0  0  0  0
   30.9913   28.2811   38.2258 C   0  0  0  0  0  0  0  0  0  0  0  0
   31.0701   27.1819   39.0911 C   0  0  0  0  0  0  0  0  0  0  0  0
   31.3825   27.3657   40.4425 C   0  0  0  0  0  0  0  0  0  0  0  0
   31.5160   26.1865   41.3703 C   0  0  0  0  0  0  0  0  0  0  0  0
   31.1300   26.5507   42.7406 N   0  0  0  0  0  0  0  0  0  0  0  0
   31.4556   27.8615   43.2471 C   0  0  0  0  0  0  0  0  0  0  0  0
   31.2793   28.1392   44.4644 O   0  0  0  0  0  0  0  0  0  0  0  0
   32.0472   28.8986   42.3372 C   0  0  0  0  0  0  0  0  0  0  0  0
   31.6349   28.6649   40.9119 C   0  0  0  0  0  0  0  0  0  0  0  0
   31.5579   29.7190   40.0566 N   0  0  0  0  0  0  0  0  0  0  0  0
   31.2292   29.5736   38.7440 C   0  0  0  0  0  0  0  0  0  0  0  0
   31.1463   30.8024   37.8863 C   0  0  0  0  0  0  0  0  0  0  0  0
   30.5193   25.5423   43.6159 C   0  0  0  0  0  0  0  0  0  0  0  0
   29.0313   25.8231   43.7927 C   0  0  0  0  0  0  0  0  0  0  0  0
  1  2  1  0
  2  3  2  0
  2  4  1  0
  4  5  2  0
  5  6  1  0
  6  7  2  0
  7  8  1  0
  8  9  2  0
  9 10  1  0
 10 11  2  0
 11 12  1  0
 12 13  2  0
 13 14  1  0
  8 15  1  0
 15 16  2  0
 16 17  1  0
 17 18  1  0
 18 19  1  0
 19 20  1  0
 20 21  2  0
 20 22  1  0
 22 23  1  0
 23 24  1  0
 24 25  2  0
 25 26  1  0
 19 27  1  0
 27 28  1  0
 13  4  1  0
 25 15  1  0
 12  7  1  0
 23 17  2  0
M  END
>  <AAScore>  (1) 
23.486726266399703

>  <RootName>  (1) 
./4ZLY/04_DeltaGEst/trajectory_01/rank_01/lead_0403

$$$$
