confid_4
     RDKit          3D

 27 30  0  0  0  0  0  0  0  0999 V2000
   24.5700   26.8800   35.5900 N   0  0  0  0  0  0  0  0  0  0  0  0
   25.5000   26.4000   34.6900 C   0  0  0  0  0  0  0  0  0  0  0  0
   25.1700   25.5200   33.9100 O   0  0  0  0  0  0  0  0  0  0  0  0
   26.8400   27.0200   34.7400 C   0  0  0  0  0  0  0  0  0  0  0  0
   27.3800   27.2800   35.9400 N   0  0  0  0  0  0  0  0  0  0  0  0
   28.6200   27.7400   36.0300 N   0  0  0  0  0  0  0  0  0  0  0  0
   29.3800   28.0000   34.9600 C   0  0  0  0  0  0  0  0  0  0  0  0
   30.6700   28.5000   35.1300 C   0  0  0  0  0  0  0  0  0  0  0  0
   31.5400   28.6100   34.0300 C   0  0  0  0  0  0  0  0  0  0  0  0
   31.0900   28.2200   32.7700 C   0  0  0  0  0  0  0  0  0  0  0  0
   29.8000   27.7000   32.6000 C   0  0  0  0  0  0  0  0  0  0  0  0
   28.9600   27.5500   33.7100 C   0  0  0  0  0  0  0  0  0  0  0  0
   27.6600   27.0300   33.5900 C   0  0  0  0  0  0  0  0  0  0  0  0
   27.1600   26.7400   32.3400 N   0  0  0  0  0  0  0  0  0  0  0  0
   23.1481   26.7066   35.4601 C   0  0  0  0  0  0  0  0  0  0  0  0
   22.3896   26.6186   36.5860 N   0  0  0  0  0  0  0  0  0  0  0  0
   21.0391   26.4793   36.5402 C   0  0  0  0  0  0  0  0  0  0  0  0
   20.3770   26.4228   35.3074 C   0  0  0  0  0  0  0  0  0  0  0  0
   18.8711   26.3208   35.2570 C   0  0  0  0  0  0  0  0  0  0  0  0
   18.3789   25.7291   33.9909 N   0  0  0  0  0  0  0  0  0  0  0  0
   18.6030   24.2721   33.9580 C   0  0  0  0  0  0  0  0  0  0  0  0
   18.9233   26.3930   32.7789 C   0  0  1  0  0  0  0  0  0  0  0  0
   18.2752   27.7668   32.5771 C   0  0  0  0  0  0  0  0  0  0  0  0
   20.4260   26.5251   32.8274 C   0  0  0  0  0  0  0  0  0  0  0  0
   21.0723   26.6388   31.7505 O   0  0  0  0  0  0  0  0  0  0  0  0
   21.1239   26.5544   34.1272 C   0  0  0  0  0  0  0  0  0  0  0  0
   22.5178   26.6974   34.2039 C   0  0  0  0  0  0  0  0  0  0  0  0
  1  2  1  0
  2  3  2  0
  2  4  1  0
  4  5  2  0
  5  6  1  0
  6  7  2  0
  7  8  1  0
  8  9  2  0
  9 10  1  0
 10 11  2  0
 11 12  1  0
 12 13  2  0
 13 14  1  0
  1 15  1  0
 15 16  2  0
 16 17  1  0
 17 18  2  0
 18 19  1  0
 19 20  1  0
 20 21  1  0
 20 22  1  0
 22 23  1  1
 22 24  1  0
 24 25  2  0
 24 26  1  0
 26 27  2  0
 13  4  1  0
 27 15  1  0
 12  7  1  0
 26 18  1  0
M  END
>  <AAScore>  (1) 
329.2128797410122

>  <RootName>  (1) 
./4ZLY/04_DeltaGEst/trajectory_05/rank_00/lead_0046

$$$$
