confid_4
     RDKit          3D

 27 29  0  0  0  0  0  0  0  0999 V2000
   24.5700   26.8800   35.5900 N   0  0  0  0  0  0  0  0  0  0  0  0
   25.5000   26.4000   34.6900 C   0  0  0  0  0  0  0  0  0  0  0  0
   25.1700   25.5200   33.9100 O   0  0  0  0  0  0  0  0  0  0  0  0
   26.8400   27.0200   34.7400 C   0  0  0  0  0  0  0  0  0  0  0  0
   27.3800   27.2800   35.9400 N   0  0  0  0  0  0  0  0  0  0  0  0
   28.6200   27.7400   36.0300 N   0  0  0  0  0  0  0  0  0  0  0  0
   29.3800   28.0000   34.9600 C   0  0  0  0  0  0  0  0  0  0  0  0
   30.6700   28.5000   35.1300 C   0  0  0  0  0  0  0  0  0  0  0  0
   31.5400   28.6100   34.0300 C   0  0  0  0  0  0  0  0  0  0  0  0
   31.0900   28.2200   32.7700 C   0  0  0  0  0  0  0  0  0  0  0  0
   29.8000   27.7000   32.6000 C   0  0  0  0  0  0  0  0  0  0  0  0
   28.9600   27.5500   33.7100 C   0  0  0  0  0  0  0  0  0  0  0  0
   27.6600   27.0300   33.5900 C   0  0  0  0  0  0  0  0  0  0  0  0
   27.1600   26.7400   32.3400 N   0  0  0  0  0  0  0  0  0  0  0  0
   33.1595   29.2752   34.2238 S   0  0  0  0  0  6  0  0  0  0  0  0
   34.1231   28.4423   33.4251 O   0  0  0  0  0  0  0  0  0  0  0  0
   33.5647   29.2208   35.6709 O   0  0  0  0  0  0  0  0  0  0  0  0
   33.2025   30.9778   33.6470 C   0  0  1  0  0  0  0  0  0  0  0  0
   32.1120   31.7905   34.3758 C   0  0  0  0  0  0  0  0  0  0  0  0
   32.1605   33.2167   33.9765 N   0  0  0  0  0  0  0  0  0  0  0  0
   32.6771   34.0699   35.0705 C   0  0  0  0  0  0  0  0  0  0  0  0
   33.3405   35.3451   34.5323 C   0  0  0  0  0  0  0  0  0  0  0  0
   34.2262   35.1278   33.2932 C   0  0  0  0  0  0  0  0  0  0  0  0
   35.3235   34.0527   33.4732 C   0  0  0  0  0  0  0  0  0  0  0  0
   34.9712   32.6888   32.8262 C   0  0  0  0  0  0  0  0  0  0  0  0
   34.6264   31.5634   33.8363 C   0  0  0  0  0  0  0  0  0  0  0  0
   30.8428   33.6896   33.5180 C   0  0  0  0  0  0  0  0  0  0  0  0
  1  2  1  0
  2  3  2  0
  2  4  1  0
  4  5  2  0
  5  6  1  0
  6  7  2  0
  7  8  1  0
  8  9  2  0
  9 10  1  0
 10 11  2  0
 11 12  1  0
 12 13  2  0
 13 14  1  0
  9 15  1  0
 15 16  2  0
 15 17  2  0
 18 15  1  1
 18 19  1  0
 19 20  1  0
 20 21  1  0
 21 22  1  0
 22 23  1  0
 23 24  1  0
 24 25  1  0
 25 26  1  0
 20 27  1  0
 13  4  1  0
 26 18  1  0
 12  7  1  0
M  END
>  <AAScore>  (1) 
-5.959938336952487

>  <RootName>  (1) 
./4ZLY/04_DeltaGEst/trajectory_05/rank_01/lead_0254

$$$$
