confid_18
     RDKit          3D

 28 31  0  0  0  0  0  0  0  0999 V2000
   24.5500   26.3900   36.2500 N   0  0  0  0  0  0  0  0  0  0  0  0
   25.6000   26.1300   35.4000 C   0  0  0  0  0  0  0  0  0  0  0  0
   25.4300   25.4300   34.4200 O   0  0  0  0  0  0  0  0  0  0  0  0
   26.9800   26.6300   35.7100 C   0  0  0  0  0  0  0  0  0  0  0  0
   27.3200   26.8200   36.9800 N   0  0  0  0  0  0  0  0  0  0  0  0
   28.4700   27.4000   37.3100 N   0  0  0  0  0  0  0  0  0  0  0  0
   29.4000   27.6300   36.3700 C   0  0  0  0  0  0  0  0  0  0  0  0
   30.6600   28.0500   36.8000 C   0  0  0  0  0  0  0  0  0  0  0  0
   31.5700   28.3600   35.7800 C   0  0  0  0  0  0  0  0  0  0  0  0
   31.3700   28.1000   34.4300 C   0  0  0  0  0  0  0  0  0  0  0  0
   30.1200   27.5900   34.0500 C   0  0  0  0  0  0  0  0  0  0  0  0
   29.1500   27.3400   35.0300 C   0  0  0  0  0  0  0  0  0  0  0  0
   27.8800   26.8900   34.6600 C   0  0  0  0  0  0  0  0  0  0  0  0
   27.4800   26.6100   33.3700 N   0  0  0  0  0  0  0  0  0  0  0  0
   30.9997   28.2858   38.2250 C   0  0  0  0  0  0  0  0  0  0  0  0
   30.8068   27.2740   39.1771 C   0  0  0  0  0  0  0  0  0  0  0  0
   31.1035   27.4976   40.5309 C   0  0  0  0  0  0  0  0  0  0  0  0
   30.8412   26.4159   41.5404 C   0  0  0  0  0  0  0  0  0  0  0  0
   29.6082   26.7179   42.4171 C   0  0  0  0  0  0  0  0  0  0  0  0
   29.4656   28.1424   42.8469 N   0  0  0  0  0  0  0  0  0  0  0  0
   30.7500   28.6269   43.4276 C   0  0  0  0  0  0  0  0  0  0  0  0
   31.8426   29.0739   42.4075 C   0  0  0  0  0  0  0  0  0  0  0  0
   31.5774   28.7623   40.9456 C   0  0  0  0  0  0  0  0  0  0  0  0
   31.8043   29.7572   39.9799 C   0  0  0  0  0  0  0  0  0  0  0  0
   31.5196   29.5214   38.6340 C   0  0  0  0  0  0  0  0  0  0  0  0
   28.9530   29.0282   41.8368 N   0  0  0  0  0  0  0  0  0  0  0  0
   28.6460   30.3421   42.4432 C   0  0  0  0  0  0  0  0  0  0  0  0
   27.7017   28.5093   41.2413 C   0  0  0  0  0  0  0  0  0  0  0  0
  1  2  1  0
  2  3  2  0
  2  4  1  0
  4  5  2  0
  5  6  1  0
  6  7  2  0
  7  8  1  0
  8  9  2  0
  9 10  1  0
 10 11  2  0
 11 12  1  0
 12 13  2  0
 13 14  1  0
  8 15  1  0
 15 16  2  0
 16 17  1  0
 17 18  1  0
 18 19  1  0
 19 20  1  0
 20 21  1  0
 21 22  1  0
 22 23  1  0
 23 24  1  0
 24 25  2  0
 20 26  1  0
 26 27  1  0
 26 28  1  0
 13  4  1  0
 25 15  1  0
 12  7  1  0
 23 17  2  0
M  END
>  <AAScore>  (1) 
24.84176943361827

>  <RootName>  (1) 
./4ZLY/04_DeltaGEst/trajectory_01/rank_01/lead_0178

$$$$
