confid_6
     RDKit          3D

 30 33  0  0  0  0  0  0  0  0999 V2000
   24.5500   26.3900   36.2500 N   0  0  0  0  0  0  0  0  0  0  0  0
   25.6000   26.1300   35.4000 C   0  0  0  0  0  0  0  0  0  0  0  0
   25.4300   25.4300   34.4200 O   0  0  0  0  0  0  0  0  0  0  0  0
   26.9800   26.6300   35.7100 C   0  0  0  0  0  0  0  0  0  0  0  0
   27.3200   26.8200   36.9800 N   0  0  0  0  0  0  0  0  0  0  0  0
   28.4700   27.4000   37.3100 N   0  0  0  0  0  0  0  0  0  0  0  0
   29.4000   27.6300   36.3700 C   0  0  0  0  0  0  0  0  0  0  0  0
   30.6600   28.0500   36.8000 C   0  0  0  0  0  0  0  0  0  0  0  0
   31.5700   28.3600   35.7800 C   0  0  0  0  0  0  0  0  0  0  0  0
   31.3700   28.1000   34.4300 C   0  0  0  0  0  0  0  0  0  0  0  0
   30.1200   27.5900   34.0500 C   0  0  0  0  0  0  0  0  0  0  0  0
   29.1500   27.3400   35.0300 C   0  0  0  0  0  0  0  0  0  0  0  0
   27.8800   26.8900   34.6600 C   0  0  0  0  0  0  0  0  0  0  0  0
   27.4800   26.6100   33.3700 N   0  0  0  0  0  0  0  0  0  0  0  0
   23.1259   26.2747   35.8916 C   0  0  0  0  0  0  0  0  0  0  0  0
   22.7020   24.8044   35.6901 C   0  0  0  0  0  0  0  0  0  0  0  0
   21.2131   24.7171   35.3280 C   0  0  0  0  0  0  0  0  0  0  0  0
   20.9152   25.6054   34.1937 N   0  0  0  0  0  0  0  0  0  0  0  0
   19.9607   25.2103   33.1904 C   0  0  0  0  0  0  0  0  0  0  0  0
   19.0596   26.0200   32.8385 O   0  0  0  0  0  0  0  0  0  0  0  0
   20.0736   23.8953   32.5167 C   0  0  0  0  0  0  0  0  0  0  0  0
   21.2521   23.1881   32.3671 C   0  0  0  0  0  0  0  0  0  0  0  0
   20.9124   22.0984   31.5919 C   0  0  0  0  0  0  0  0  0  0  0  0
   19.6011   22.1505   31.2898 N   0  0  0  0  0  0  0  0  0  0  0  0
   19.0879   23.2317   31.8616 N   0  0  0  0  0  0  0  0  0  0  0  0
   17.6766   23.6228   31.7158 C   0  0  0  0  0  0  0  0  0  0  0  0
   16.7620   22.3922   31.7782 C   0  0  0  0  0  0  0  0  0  0  0  0
   17.4790   24.3786   30.3994 C   0  0  0  0  0  0  0  0  0  0  0  0
   21.2986   27.0183   34.3150 C   0  0  0  0  0  0  0  0  0  0  0  0
   22.7895   27.1264   34.6510 C   0  0  0  0  0  0  0  0  0  0  0  0
  1  2  1  0
  2  3  2  0
  2  4  1  0
  4  5  2  0
  5  6  1  0
  6  7  2  0
  7  8  1  0
  8  9  2  0
  9 10  1  0
 10 11  2  0
 11 12  1  0
 12 13  2  0
 13 14  1  0
  1 15  1  0
 15 16  1  0
 16 17  1  0
 17 18  1  0
 18 19  1  0
 19 20  2  0
 19 21  1  0
 21 22  2  0
 22 23  1  0
 23 24  2  0
 24 25  1  0
 25 26  1  0
 26 27  1  0
 26 28  1  0
 18 29  1  0
 29 30  1  0
 13  4  1  0
 30 15  1  0
 12  7  1  0
 25 21  1  0
M  END
>  <AAScore>  (1) 
1197.1453525641834

>  <RootName>  (1) 
./4ZLY/04_DeltaGEst/trajectory_01/rank_00/lead_0467

$$$$
