confid_13
     RDKit          3D

 27 30  0  0  0  0  0  0  0  0999 V2000
   24.2000   26.2400   35.6900 N   0  0  0  0  0  0  0  0  0  0  0  0
   24.8500   26.2800   34.4800 C   0  0  0  0  0  0  0  0  0  0  0  0
   24.3100   25.7400   33.5400 O   0  0  0  0  0  0  0  0  0  0  0  0
   26.1800   26.9700   34.4700 C   0  0  0  0  0  0  0  0  0  0  0  0
   26.6500   27.6000   35.5500 N   0  0  0  0  0  0  0  0  0  0  0  0
   27.7900   28.2700   35.6200 N   0  0  0  0  0  0  0  0  0  0  0  0
   28.5400   28.3000   34.5100 C   0  0  0  0  0  0  0  0  0  0  0  0
   29.7700   28.9400   34.5600 C   0  0  0  0  0  0  0  0  0  0  0  0
   30.7000   28.8900   33.5000 C   0  0  0  0  0  0  0  0  0  0  0  0
   30.3700   28.1400   32.3700 C   0  0  0  0  0  0  0  0  0  0  0  0
   29.1200   27.5200   32.2800 C   0  0  0  0  0  0  0  0  0  0  0  0
   28.2100   27.6100   33.3300 C   0  0  0  0  0  0  0  0  0  0  0  0
   26.9700   26.9700   33.3100 C   0  0  0  0  0  0  0  0  0  0  0  0
   26.5300   26.2400   32.2200 N   0  0  0  0  0  0  0  0  0  0  0  0
   23.2063   25.2539   36.0403 C   0  0  0  0  0  0  0  0  0  0  0  0
   22.8980   24.2045   35.2469 N   0  0  0  0  0  0  0  0  0  0  0  0
   21.9265   23.5563   35.9126 C   0  0  0  0  0  0  0  0  0  0  0  0
   21.6550   24.2182   37.0899 C   0  0  0  0  0  0  0  0  0  0  0  0
   20.6304   23.7683   38.0933 C   0  0  0  0  0  0  0  0  0  0  0  0
   19.7837   24.8914   38.5077 N   0  0  0  0  0  0  0  0  0  0  0  0
   20.3527   25.9529   39.2963 C   0  0  0  0  0  0  0  0  0  0  0  0
   19.6134   26.8534   39.7796 O   0  0  0  0  0  0  0  0  0  0  0  0
   21.8335   26.0260   39.5187 C   0  0  0  0  0  0  0  0  0  0  0  0
   22.5651   26.3453   38.2128 C   0  0  0  0  0  0  0  0  0  0  0  0
   22.4868   25.2847   37.1905 N   0  0  0  0  0  0  0  0  0  0  0  0
   18.3711   24.9419   38.1050 C   0  0  0  0  0  0  0  0  0  0  0  0
   18.1869   25.9082   36.9400 C   0  0  0  0  0  0  0  0  0  0  0  0
  1  2  1  0
  2  3  2  0
  2  4  1  0
  4  5  2  0
  5  6  1  0
  6  7  2  0
  7  8  1  0
  8  9  2  0
  9 10  1  0
 10 11  2  0
 11 12  1  0
 12 13  2  0
 13 14  1  0
  1 15  1  0
 15 16  2  0
 16 17  1  0
 17 18  2  0
 18 19  1  0
 19 20  1  0
 20 21  1  0
 21 22  2  0
 21 23  1  0
 23 24  1  0
 24 25  1  0
 20 26  1  0
 26 27  1  0
 13  4  1  0
 25 15  1  0
 12  7  1  0
 25 18  1  0
M  END
>  <AAScore>  (1) 
489.7548954135663

>  <RootName>  (1) 
./4ZLY/04_DeltaGEst/trajectory_04/rank_00/lead_0394

$$$$
