confid_14
     RDKit          3D

 27 28  0  0  0  0  0  0  0  0999 V2000
   24.5700   26.8800   35.5900 N   0  0  0  0  0  0  0  0  0  0  0  0
   25.5000   26.4000   34.6900 C   0  0  0  0  0  0  0  0  0  0  0  0
   25.1700   25.5200   33.9100 O   0  0  0  0  0  0  0  0  0  0  0  0
   26.8400   27.0200   34.7400 C   0  0  0  0  0  0  0  0  0  0  0  0
   27.3800   27.2800   35.9400 N   0  0  0  0  0  0  0  0  0  0  0  0
   28.6200   27.7400   36.0300 N   0  0  0  0  0  0  0  0  0  0  0  0
   29.3800   28.0000   34.9600 C   0  0  0  0  0  0  0  0  0  0  0  0
   30.6700   28.5000   35.1300 C   0  0  0  0  0  0  0  0  0  0  0  0
   31.5400   28.6100   34.0300 C   0  0  0  0  0  0  0  0  0  0  0  0
   31.0900   28.2200   32.7700 C   0  0  0  0  0  0  0  0  0  0  0  0
   29.8000   27.7000   32.6000 C   0  0  0  0  0  0  0  0  0  0  0  0
   28.9600   27.5500   33.7100 C   0  0  0  0  0  0  0  0  0  0  0  0
   27.6600   27.0300   33.5900 C   0  0  0  0  0  0  0  0  0  0  0  0
   27.1600   26.7400   32.3400 N   0  0  0  0  0  0  0  0  0  0  0  0
   33.2021   29.1928   34.2486 S   0  0  0  0  0  6  0  0  0  0  0  0
   33.5486   29.0523   35.7055 O   0  0  0  0  0  0  0  0  0  0  0  0
   34.1020   28.2619   33.4835 O   0  0  0  0  0  0  0  0  0  0  0  0
   33.5125   30.9384   33.7488 C   0  0  2  0  0  0  0  0  0  0  0  0
   35.0633   31.0643   33.5088 C   0  0  0  0  0  0  0  0  0  0  0  0
   35.9347   30.8983   34.7724 C   0  0  0  0  0  0  0  0  0  0  0  0
   37.3844   31.2855   34.4936 C   0  0  0  0  0  0  0  0  0  0  0  0
   33.0792   31.8313   34.8862 N   0  0  0  0  0  0  0  0  0  0  0  0
   31.6690   31.7199   35.3138 C   0  0  0  0  0  0  0  0  0  0  0  0
   33.5571   33.2332   34.9501 C   0  0  0  0  0  0  0  0  0  0  0  0
   32.7296   31.2385   32.3941 C   0  0  0  0  0  0  0  0  0  0  0  0
   33.3486   30.5597   31.1517 C   0  0  0  0  0  0  0  0  0  0  0  0
   32.5313   32.7295   32.0738 C   0  0  0  0  0  0  0  0  0  0  0  0
  1  2  1  0
  2  3  2  0
  2  4  1  0
  4  5  2  0
  5  6  1  0
  6  7  2  0
  7  8  1  0
  8  9  2  0
  9 10  1  0
 10 11  2  0
 11 12  1  0
 12 13  2  0
 13 14  1  0
  9 15  1  0
 15 16  2  0
 15 17  2  0
 15 18  1  0
 18 19  1  6
 19 20  1  0
 20 21  1  0
 18 22  1  0
 22 23  1  0
 22 24  1  0
 18 25  1  0
 25 26  1  0
 25 27  1  0
 13  4  1  0
 12  7  1  0
M  END
>  <AAScore>  (1) 
-5.581063697414901

>  <RootName>  (1) 
./4ZLY/04_DeltaGEst/trajectory_05/rank_01/lead_0187

$$$$
