confid_7
     RDKit          3D

 28 31  0  0  0  0  0  0  0  0999 V2000
   24.4800   26.1000   36.1300 N   0  0  0  0  0  0  0  0  0  0  0  0
   25.2500   26.2500   34.9900 C   0  0  0  0  0  0  0  0  0  0  0  0
   24.7400   25.7600   33.9900 O   0  0  0  0  0  0  0  0  0  0  0  0
   26.5900   26.8900   34.9600 C   0  0  0  0  0  0  0  0  0  0  0  0
   27.0600   27.2400   36.1600 N   0  0  0  0  0  0  0  0  0  0  0  0
   28.3000   27.7100   36.2400 N   0  0  0  0  0  0  0  0  0  0  0  0
   29.0500   27.9600   35.1500 C   0  0  0  0  0  0  0  0  0  0  0  0
   30.3400   28.4900   35.2600 C   0  0  0  0  0  0  0  0  0  0  0  0
   31.1100   28.8200   34.1400 C   0  0  0  0  0  0  0  0  0  0  0  0
   30.5200   28.6700   32.8800 C   0  0  0  0  0  0  0  0  0  0  0  0
   29.2900   28.0200   32.7700 C   0  0  0  0  0  0  0  0  0  0  0  0
   28.5200   27.7100   33.8900 C   0  0  0  0  0  0  0  0  0  0  0  0
   27.2700   27.0800   33.7600 C   0  0  0  0  0  0  0  0  0  0  0  0
   26.7500   26.8800   32.4900 N   0  0  0  0  0  0  0  0  0  0  0  0
   23.0741   26.4021   36.2054 C   0  0  0  0  0  0  0  0  0  0  0  0
   22.4592   27.2624   35.2460 C   0  0  0  0  0  0  0  0  0  0  0  0
   21.1305   27.5535   35.4704 C   0  0  0  0  0  0  0  0  0  0  0  0
   19.9411   28.2495   35.0863 C   0  0  0  0  0  0  0  0  0  0  0  0
   19.1792   27.7536   36.1739 N   0  0  0  0  0  0  0  0  0  0  0  0
   17.8496   27.9114   36.6724 C   0  0  0  0  0  0  0  0  0  0  0  0
   17.0230   28.6177   36.0333 O   0  0  0  0  0  0  0  0  0  0  0  0
   17.4143   27.2082   37.9229 C   0  0  0  0  0  0  0  0  0  0  0  0
   16.7795   25.8548   37.6058 C   0  0  0  0  0  0  0  0  0  0  0  0
   17.7380   25.0078   37.0049 O   0  0  0  0  0  0  0  0  0  0  0  0
   17.1537   23.7475   36.7478 C   0  0  0  0  0  0  0  0  0  0  0  0
   20.4020   27.0429   36.5543 C   0  0  0  0  0  0  0  0  0  0  0  0
   20.9482   26.1991   37.4996 C   0  0  0  0  0  0  0  0  0  0  0  0
   22.3176   25.8870   37.3142 C   0  0  0  0  0  0  0  0  0  0  0  0
  1  2  1  0
  2  3  2  0
  2  4  1  0
  4  5  2  0
  5  6  1  0
  6  7  2  0
  7  8  1  0
  8  9  2  0
  9 10  1  0
 10 11  2  0
 11 12  1  0
 12 13  2  0
 13 14  1  0
  1 15  1  0
 15 16  2  0
 16 17  1  0
 17 18  1  0
 18 19  1  0
 19 20  1  0
 20 21  2  0
 20 22  1  0
 22 23  1  0
 23 24  1  0
 24 25  1  0
 19 26  1  0
 26 27  1  0
 27 28  2  0
 13  4  1  0
 28 15  1  0
 12  7  1  0
 26 17  2  0
M  END
>  <AAScore>  (1) 
153.42767176714767

>  <RootName>  (1) 
./4ZLY/04_DeltaGEst/trajectory_00/rank_00/lead_0203

$$$$
