confid_2
     RDKit          3D

 27 30  0  0  0  0  0  0  0  0999 V2000
   24.4800   26.1000   36.1300 N   0  0  0  0  0  0  0  0  0  0  0  0
   25.2500   26.2500   34.9900 C   0  0  0  0  0  0  0  0  0  0  0  0
   24.7400   25.7600   33.9900 O   0  0  0  0  0  0  0  0  0  0  0  0
   26.5900   26.8900   34.9600 C   0  0  0  0  0  0  0  0  0  0  0  0
   27.0600   27.2400   36.1600 N   0  0  0  0  0  0  0  0  0  0  0  0
   28.3000   27.7100   36.2400 N   0  0  0  0  0  0  0  0  0  0  0  0
   29.0500   27.9600   35.1500 C   0  0  0  0  0  0  0  0  0  0  0  0
   30.3400   28.4900   35.2600 C   0  0  0  0  0  0  0  0  0  0  0  0
   31.1100   28.8200   34.1400 C   0  0  0  0  0  0  0  0  0  0  0  0
   30.5200   28.6700   32.8800 C   0  0  0  0  0  0  0  0  0  0  0  0
   29.2900   28.0200   32.7700 C   0  0  0  0  0  0  0  0  0  0  0  0
   28.5200   27.7100   33.8900 C   0  0  0  0  0  0  0  0  0  0  0  0
   27.2700   27.0800   33.7600 C   0  0  0  0  0  0  0  0  0  0  0  0
   26.7500   26.8800   32.4900 N   0  0  0  0  0  0  0  0  0  0  0  0
   23.4877   25.0751   36.3382 C   0  0  0  0  0  0  0  0  0  0  0  0
   23.3967   24.0086   35.4944 N   0  0  0  0  0  0  0  0  0  0  0  0
   22.4806   23.0186   35.6710 C   0  0  0  0  0  0  0  0  0  0  0  0
   22.4537   21.8470   34.7212 C   0  0  0  0  0  0  0  0  0  0  0  0
   21.1086   21.2345   34.6284 N   0  0  0  0  0  0  0  0  0  0  0  0
   20.1689   22.1196   33.9077 C   0  0  0  0  0  0  0  0  0  0  0  0
   20.6253   20.8163   35.9724 C   0  0  2  0  0  0  0  0  0  0  0  0
   19.2605   20.1116   35.9002 C   0  0  0  0  0  0  0  0  0  0  0  0
   20.6263   21.9724   36.9515 C   0  0  0  0  0  0  0  0  0  0  0  0
   19.8500   21.9705   37.9462 O   0  0  0  0  0  0  0  0  0  0  0  0
   21.6096   23.0588   36.7716 C   0  0  0  0  0  0  0  0  0  0  0  0
   21.6889   24.1415   37.6581 C   0  0  0  0  0  0  0  0  0  0  0  0
   22.6299   25.1499   37.4439 C   0  0  0  0  0  0  0  0  0  0  0  0
  1  2  1  0
  2  3  2  0
  2  4  1  0
  4  5  2  0
  5  6  1  0
  6  7  2  0
  7  8  1  0
  8  9  2  0
  9 10  1  0
 10 11  2  0
 11 12  1  0
 12 13  2  0
 13 14  1  0
  1 15  1  0
 15 16  2  0
 16 17  1  0
 17 18  1  0
 18 19  1  0
 19 20  1  0
 19 21  1  0
 21 22  1  6
 21 23  1  0
 23 24  2  0
 23 25  1  0
 25 26  1  0
 26 27  2  0
 13  4  1  0
 27 15  1  0
 12  7  1  0
 25 17  2  0
M  END
>  <AAScore>  (1) 
249.3452789008695

>  <RootName>  (1) 
./4ZLY/04_DeltaGEst/trajectory_00/rank_01/lead_0299

$$$$
