confid_2
     RDKit          3D

 28 31  0  0  0  0  0  0  0  0999 V2000
   24.4800   26.1000   36.1300 N   0  0  0  0  0  0  0  0  0  0  0  0
   25.2500   26.2500   34.9900 C   0  0  0  0  0  0  0  0  0  0  0  0
   24.7400   25.7600   33.9900 O   0  0  0  0  0  0  0  0  0  0  0  0
   26.5900   26.8900   34.9600 C   0  0  0  0  0  0  0  0  0  0  0  0
   27.0600   27.2400   36.1600 N   0  0  0  0  0  0  0  0  0  0  0  0
   28.3000   27.7100   36.2400 N   0  0  0  0  0  0  0  0  0  0  0  0
   29.0500   27.9600   35.1500 C   0  0  0  0  0  0  0  0  0  0  0  0
   30.3400   28.4900   35.2600 C   0  0  0  0  0  0  0  0  0  0  0  0
   31.1100   28.8200   34.1400 C   0  0  0  0  0  0  0  0  0  0  0  0
   30.5200   28.6700   32.8800 C   0  0  0  0  0  0  0  0  0  0  0  0
   29.2900   28.0200   32.7700 C   0  0  0  0  0  0  0  0  0  0  0  0
   28.5200   27.7100   33.8900 C   0  0  0  0  0  0  0  0  0  0  0  0
   27.2700   27.0800   33.7600 C   0  0  0  0  0  0  0  0  0  0  0  0
   26.7500   26.8800   32.4900 N   0  0  0  0  0  0  0  0  0  0  0  0
   23.0426   26.0931   36.1474 C   0  0  0  0  0  0  0  0  0  0  0  0
   22.4269   25.4326   37.0909 N   0  0  0  0  0  0  0  0  0  0  0  0
   20.9946   25.4181   37.2133 C   0  0  0  0  0  0  0  0  0  0  0  0
   20.2451   25.8977   36.2161 C   0  0  0  0  0  0  0  0  0  0  0  0
   18.8141   26.2573   36.3285 C   0  0  0  0  0  0  0  0  0  0  0  0
   18.6022   27.1568   35.2023 N   0  0  0  0  0  0  0  0  0  0  0  0
   17.3732   27.8625   34.9530 C   0  0  0  0  0  0  0  0  0  0  0  0
   17.3303   28.7205   34.0285 O   0  0  0  0  0  0  0  0  0  0  0  0
   16.1626   27.6500   35.8279 C   0  0  0  0  0  0  0  0  0  0  0  0
   14.8551   27.9472   35.0957 C   0  0  0  0  0  0  0  0  0  0  0  0
   19.8084   27.3673   34.3999 C   0  0  0  0  0  0  0  0  0  0  0  0
   20.8541   26.3625   34.9318 C   0  0  2  0  0  0  0  0  0  0  0  0
   20.9962   25.1662   33.9672 C   0  0  0  0  0  0  0  0  0  0  0  0
   22.2372   26.9963   35.2211 C   0  0  0  0  0  0  0  0  0  0  0  0
  1  2  1  0
  2  3  2  0
  2  4  1  0
  4  5  2  0
  5  6  1  0
  6  7  2  0
  7  8  1  0
  8  9  2  0
  9 10  1  0
 10 11  2  0
 11 12  1  0
 12 13  2  0
 13 14  1  0
  1 15  1  0
 15 16  2  0
 16 17  1  0
 17 18  2  0
 18 19  1  0
 19 20  1  0
 20 21  1  0
 21 22  2  0
 21 23  1  0
 23 24  1  0
 20 25  1  0
 25 26  1  0
 26 27  1  6
 26 28  1  0
 13  4  1  0
 28 15  1  0
 12  7  1  0
 26 18  1  0
M  END
>  <AAScore>  (1) 
650.4957503629963

>  <RootName>  (1) 
./4ZLY/04_DeltaGEst/trajectory_00/rank_01/lead_0143

$$$$
