confid_13
     RDKit          3D

 28 31  0  0  0  0  0  0  0  0999 V2000
   24.5700   26.8800   35.5900 N   0  0  0  0  0  0  0  0  0  0  0  0
   25.5000   26.4000   34.6900 C   0  0  0  0  0  0  0  0  0  0  0  0
   25.1700   25.5200   33.9100 O   0  0  0  0  0  0  0  0  0  0  0  0
   26.8400   27.0200   34.7400 C   0  0  0  0  0  0  0  0  0  0  0  0
   27.3800   27.2800   35.9400 N   0  0  0  0  0  0  0  0  0  0  0  0
   28.6200   27.7400   36.0300 N   0  0  0  0  0  0  0  0  0  0  0  0
   29.3800   28.0000   34.9600 C   0  0  0  0  0  0  0  0  0  0  0  0
   30.6700   28.5000   35.1300 C   0  0  0  0  0  0  0  0  0  0  0  0
   31.5400   28.6100   34.0300 C   0  0  0  0  0  0  0  0  0  0  0  0
   31.0900   28.2200   32.7700 C   0  0  0  0  0  0  0  0  0  0  0  0
   29.8000   27.7000   32.6000 C   0  0  0  0  0  0  0  0  0  0  0  0
   28.9600   27.5500   33.7100 C   0  0  0  0  0  0  0  0  0  0  0  0
   27.6600   27.0300   33.5900 C   0  0  0  0  0  0  0  0  0  0  0  0
   27.1600   26.7400   32.3400 N   0  0  0  0  0  0  0  0  0  0  0  0
   33.1582   29.2799   34.2188 S   0  0  0  0  0  6  0  0  0  0  0  0
   34.1418   28.3693   33.5394 O   0  0  0  0  0  0  0  0  0  0  0  0
   33.5176   29.3597   35.6760 O   0  0  0  0  0  0  0  0  0  0  0  0
   33.2587   30.9084   33.4744 C   0  0  0  0  0  0  0  0  0  0  0  0
   32.0557   31.8159   33.8242 C   0  0  2  0  0  0  0  0  0  0  0  0
   32.0448   33.0566   32.9226 C   0  0  0  0  0  0  0  0  0  0  0  0
   30.8508   33.9368   33.2694 C   0  0  0  0  0  0  0  0  0  0  0  0
   30.9204   34.3546   34.7363 C   0  0  2  0  0  0  0  0  0  0  0  0
   30.9184   33.1777   35.6419 N   0  0  0  0  0  0  0  0  0  0  0  0
   31.2549   33.6126   37.0083 C   0  0  0  0  0  0  0  0  0  0  0  0
   32.7758   33.5334   37.1625 C   0  0  0  0  0  0  0  0  0  0  0  0
   33.2653   32.7440   35.9580 C   0  0  0  0  0  0  0  0  0  0  0  0
   31.9822   32.2025   35.3307 C   0  0  2  0  0  0  0  0  0  0  0  0
   29.8166   35.1448   35.0121 F   0  0  0  0  0  0  0  0  0  0  0  0
  1  2  1  0
  2  3  2  0
  2  4  1  0
  4  5  2  0
  5  6  1  0
  6  7  2  0
  7  8  1  0
  8  9  2  0
  9 10  1  0
 10 11  2  0
 11 12  1  0
 12 13  2  0
 13 14  1  0
  9 15  1  0
 15 16  2  0
 15 17  2  0
 15 18  1  0
 19 18  1  1
 19 20  1  0
 20 21  1  0
 21 22  1  0
 22 23  1  0
 23 24  1  0
 24 25  1  0
 25 26  1  0
 27 26  1  6
 22 28  1  1
 13  4  1  0
 27 19  1  0
 12  7  1  0
 27 23  1  0
M  END
>  <AAScore>  (1) 
-6.117745247373754

>  <RootName>  (1) 
./4ZLY/04_DeltaGEst/trajectory_05/rank_01/lead_0179

$$$$
