confid_10
     RDKit          3D

 27 30  0  0  0  0  0  0  0  0999 V2000
   24.6900   26.1200   35.5300 N   0  0  0  0  0  0  0  0  0  0  0  0
   25.6600   25.6700   34.6600 C   0  0  0  0  0  0  0  0  0  0  0  0
   25.2400   25.0100   33.7200 O   0  0  0  0  0  0  0  0  0  0  0  0
   27.0300   26.2200   34.8800 C   0  0  0  0  0  0  0  0  0  0  0  0
   27.3500   26.7300   36.0700 N   0  0  0  0  0  0  0  0  0  0  0  0
   28.5700   27.1800   36.3300 N   0  0  0  0  0  0  0  0  0  0  0  0
   29.5300   27.1100   35.3900 C   0  0  0  0  0  0  0  0  0  0  0  0
   30.8300   27.5700   35.6500 C   0  0  0  0  0  0  0  0  0  0  0  0
   31.8500   27.5400   34.6900 C   0  0  0  0  0  0  0  0  0  0  0  0
   31.5100   27.1200   33.4000 C   0  0  0  0  0  0  0  0  0  0  0  0
   30.2200   26.6300   33.1100 C   0  0  0  0  0  0  0  0  0  0  0  0
   29.2400   26.6600   34.1000 C   0  0  0  0  0  0  0  0  0  0  0  0
   27.9300   26.2600   33.8100 C   0  0  0  0  0  0  0  0  0  0  0  0
   27.5200   25.7100   32.6100 N   0  0  0  0  0  0  0  0  0  0  0  0
   31.1833   28.0773   36.9935 C   0  0  0  0  0  0  0  0  0  0  0  0
   31.7687   29.3649   37.2298 C   0  0  0  0  0  0  0  0  0  0  0  0
   31.9042   29.3391   38.5853 C   0  0  0  0  0  0  0  0  0  0  0  0
   32.2546   29.8129   39.8857 C   0  0  0  0  0  0  0  0  0  0  0  0
   31.8075   28.6210   40.4862 N   0  0  0  0  0  0  0  0  0  0  0  0
   31.7109   28.0913   41.8081 C   0  0  0  0  0  0  0  0  0  0  0  0
   32.1666   28.7523   42.7787 O   0  0  0  0  0  0  0  0  0  0  0  0
   31.1102   26.7443   42.0426 C   0  0  0  0  0  0  0  0  0  0  0  0
   32.0803   25.7573   41.7691 O   0  0  0  0  0  0  0  0  0  0  0  0
   31.5323   24.4827   42.0200 C   0  0  0  0  0  0  0  0  0  0  0  0
   31.4794   28.2017   39.1578 N   0  0  0  0  0  0  0  0  0  0  0  0
   31.0286   27.3662   38.2266 C   0  0  0  0  0  0  0  0  0  0  0  0
   30.5428   25.9748   38.4696 C   0  0  0  0  0  0  0  0  0  0  0  0
  1  2  1  0
  2  3  2  0
  2  4  1  0
  4  5  2  0
  5  6  1  0
  6  7  2  0
  7  8  1  0
  8  9  2  0
  9 10  1  0
 10 11  2  0
 11 12  1  0
 12 13  2  0
 13 14  1  0
  8 15  1  0
 15 16  1  0
 16 17  2  0
 17 18  1  0
 18 19  1  0
 19 20  1  0
 20 21  2  0
 20 22  1  0
 22 23  1  0
 23 24  1  0
 19 25  1  0
 25 26  1  0
 26 27  1  0
 13  4  1  0
 26 15  2  0
 12  7  1  0
 25 17  1  0
M  END
>  <AAScore>  (1) 
4.632286770472461

>  <RootName>  (1) 
./4ZLY/04_DeltaGEst/trajectory_02/rank_01/lead_0019

$$$$
