confid_8
     RDKit          3D

 30 33  0  0  0  0  0  0  0  0999 V2000
   24.6900   26.1200   35.5300 N   0  0  0  0  0  0  0  0  0  0  0  0
   25.6600   25.6700   34.6600 C   0  0  0  0  0  0  0  0  0  0  0  0
   25.2400   25.0100   33.7200 O   0  0  0  0  0  0  0  0  0  0  0  0
   27.0300   26.2200   34.8800 C   0  0  0  0  0  0  0  0  0  0  0  0
   27.3500   26.7300   36.0700 N   0  0  0  0  0  0  0  0  0  0  0  0
   28.5700   27.1800   36.3300 N   0  0  0  0  0  0  0  0  0  0  0  0
   29.5300   27.1100   35.3900 C   0  0  0  0  0  0  0  0  0  0  0  0
   30.8300   27.5700   35.6500 C   0  0  0  0  0  0  0  0  0  0  0  0
   31.8500   27.5400   34.6900 C   0  0  0  0  0  0  0  0  0  0  0  0
   31.5100   27.1200   33.4000 C   0  0  0  0  0  0  0  0  0  0  0  0
   30.2200   26.6300   33.1100 C   0  0  0  0  0  0  0  0  0  0  0  0
   29.2400   26.6600   34.1000 C   0  0  0  0  0  0  0  0  0  0  0  0
   27.9300   26.2600   33.8100 C   0  0  0  0  0  0  0  0  0  0  0  0
   27.5200   25.7100   32.6100 N   0  0  0  0  0  0  0  0  0  0  0  0
   31.1454   28.0582   36.9630 N   0  0  0  0  0  0  0  0  0  0  0  0
   30.6314   29.3599   37.4056 C   0  0  0  0  0  0  0  0  0  0  0  0
   30.1549   29.3071   38.8741 C   0  0  0  0  0  0  0  0  0  0  0  0
   30.5661   28.0606   39.5550 N   0  0  0  0  0  0  0  0  0  0  0  0
   30.2896   28.1025   41.0091 C   0  0  0  0  0  0  0  0  0  0  0  0
   29.4218   26.9049   41.4106 C   0  0  0  0  0  0  0  0  0  0  0  0
   30.1009   25.5946   41.0989 C   0  0  0  0  0  0  0  0  0  0  0  0
   29.8605   24.9287   39.8811 C   0  0  0  0  0  0  0  0  0  0  0  0
   30.5429   23.7454   39.5817 C   0  0  0  0  0  0  0  0  0  0  0  0
   31.4686   23.2201   40.4866 C   0  0  0  0  0  0  0  0  0  0  0  0
   31.7178   23.8783   41.6938 C   0  0  0  0  0  0  0  0  0  0  0  0
   32.6226   23.3716   42.5671 F   0  0  0  0  0  0  0  0  0  0  0  0
   31.0406   25.0631   41.9983 C   0  0  0  0  0  0  0  0  0  0  0  0
   28.9797   25.4303   38.9785 F   0  0  0  0  0  0  0  0  0  0  0  0
   31.9768   27.7475   39.2633 C   0  0  0  0  0  0  0  0  0  0  0  0
   32.0937   27.3149   37.8002 C   0  0  0  0  0  0  0  0  0  0  0  0
  1  2  1  0
  2  3  2  0
  2  4  1  0
  4  5  2  0
  5  6  1  0
  6  7  2  0
  7  8  1  0
  8  9  2  0
  9 10  1  0
 10 11  2  0
 11 12  1  0
 12 13  2  0
 13 14  1  0
  8 15  1  0
 15 16  1  0
 16 17  1  0
 17 18  1  0
 18 19  1  0
 19 20  1  0
 20 21  1  0
 21 22  2  0
 22 23  1  0
 23 24  2  0
 24 25  1  0
 25 26  1  0
 25 27  2  0
 22 28  1  0
 18 29  1  0
 29 30  1  0
 13  4  1  0
 30 15  1  0
 12  7  1  0
 27 21  1  0
M  END
>  <AAScore>  (1) 
17.440309031831166

>  <RootName>  (1) 
./4ZLY/04_DeltaGEst/trajectory_02/rank_01/lead_0190

$$$$
