confid_7
     RDKit          3D

 25 27  0  0  0  0  0  0  0  0999 V2000
   24.5700   26.8800   35.5900 N   0  0  0  0  0  0  0  0  0  0  0  0
   25.5000   26.4000   34.6900 C   0  0  0  0  0  0  0  0  0  0  0  0
   25.1700   25.5200   33.9100 O   0  0  0  0  0  0  0  0  0  0  0  0
   26.8400   27.0200   34.7400 C   0  0  0  0  0  0  0  0  0  0  0  0
   27.3800   27.2800   35.9400 N   0  0  0  0  0  0  0  0  0  0  0  0
   28.6200   27.7400   36.0300 N   0  0  0  0  0  0  0  0  0  0  0  0
   29.3800   28.0000   34.9600 C   0  0  0  0  0  0  0  0  0  0  0  0
   30.6700   28.5000   35.1300 C   0  0  0  0  0  0  0  0  0  0  0  0
   31.5400   28.6100   34.0300 C   0  0  0  0  0  0  0  0  0  0  0  0
   31.0900   28.2200   32.7700 C   0  0  0  0  0  0  0  0  0  0  0  0
   29.8000   27.7000   32.6000 C   0  0  0  0  0  0  0  0  0  0  0  0
   28.9600   27.5500   33.7100 C   0  0  0  0  0  0  0  0  0  0  0  0
   27.6600   27.0300   33.5900 C   0  0  0  0  0  0  0  0  0  0  0  0
   27.1600   26.7400   32.3400 N   0  0  0  0  0  0  0  0  0  0  0  0
   33.1580   29.2700   34.2476 S   0  0  0  0  0  6  0  0  0  0  0  0
   34.0223   28.9075   33.0716 O   0  0  0  0  0  0  0  0  0  0  0  0
   33.7654   28.6805   35.4898 O   0  0  0  0  0  0  0  0  0  0  0  0
   33.0642   31.0533   34.4081 C   0  0  1  0  0  0  0  0  0  0  0  0
   34.4495   31.6444   34.7610 C   0  0  0  0  0  0  0  0  0  0  0  0
   34.6089   33.1226   34.3474 C   0  0  0  0  0  0  0  0  0  0  0  0
   33.2600   33.8607   34.3142 C   0  0  2  0  0  0  0  0  0  0  0  0
   32.3150   33.2133   33.2759 C   0  0  0  0  0  0  0  0  0  0  0  0
   32.5016   31.6881   33.1268 C   0  0  0  0  0  0  0  0  0  0  0  0
   33.4671   35.2174   33.9554 O   0  0  0  0  0  0  0  0  0  0  0  0
   33.5014   36.0390   35.1019 C   0  0  0  0  0  0  0  0  0  0  0  0
  1  2  1  0
  2  3  2  0
  2  4  1  0
  4  5  2  0
  5  6  1  0
  6  7  2  0
  7  8  1  0
  8  9  2  0
  9 10  1  0
 10 11  2  0
 11 12  1  0
 12 13  2  0
 13 14  1  0
  9 15  1  0
 15 16  2  0
 15 17  2  0
 18 15  1  6
 18 19  1  0
 19 20  1  0
 20 21  1  0
 21 22  1  0
 22 23  1  0
 21 24  1  6
 24 25  1  0
 13  4  1  0
 23 18  1  0
 12  7  1  0
M  END
>  <AAScore>  (1) 
-6.065613383507447

>  <RootName>  (1) 
./4ZLY/04_DeltaGEst/trajectory_05/rank_01/lead_0402

$$$$
