confid_16
     RDKit          3D

 32 35  0  0  0  0  0  0  0  0999 V2000
   24.5500   26.3900   36.2500 N   0  0  0  0  0  0  0  0  0  0  0  0
   25.6000   26.1300   35.4000 C   0  0  0  0  0  0  0  0  0  0  0  0
   25.4300   25.4300   34.4200 O   0  0  0  0  0  0  0  0  0  0  0  0
   26.9800   26.6300   35.7100 C   0  0  0  0  0  0  0  0  0  0  0  0
   27.3200   26.8200   36.9800 N   0  0  0  0  0  0  0  0  0  0  0  0
   28.4700   27.4000   37.3100 N   0  0  0  0  0  0  0  0  0  0  0  0
   29.4000   27.6300   36.3700 C   0  0  0  0  0  0  0  0  0  0  0  0
   30.6600   28.0500   36.8000 C   0  0  0  0  0  0  0  0  0  0  0  0
   31.5700   28.3600   35.7800 C   0  0  0  0  0  0  0  0  0  0  0  0
   31.3700   28.1000   34.4300 C   0  0  0  0  0  0  0  0  0  0  0  0
   30.1200   27.5900   34.0500 C   0  0  0  0  0  0  0  0  0  0  0  0
   29.1500   27.3400   35.0300 C   0  0  0  0  0  0  0  0  0  0  0  0
   27.8800   26.8900   34.6600 C   0  0  0  0  0  0  0  0  0  0  0  0
   27.4800   26.6100   33.3700 N   0  0  0  0  0  0  0  0  0  0  0  0
   23.1562   25.9809   36.0136 C   0  0  0  0  0  0  0  0  0  0  0  0
   22.5849   26.6710   34.7561 C   0  0  0  0  0  0  0  0  0  0  0  0
   21.1612   26.1773   34.4592 C   0  0  0  0  0  0  0  0  0  0  0  0
   21.0653   24.7087   34.5181 N   0  0  0  0  0  0  0  0  0  0  0  0
   19.7830   24.0545   34.3962 C   0  0  0  0  0  0  0  0  0  0  0  0
   19.6169   22.9033   34.8874 O   0  0  0  0  0  0  0  0  0  0  0  0
   18.6438   24.6717   33.6253 C   0  0  0  0  0  0  0  0  0  0  0  0
   18.7928   24.3768   32.1536 C   0  0  0  0  0  0  0  0  0  0  0  0
   18.6079   23.0702   31.6767 C   0  0  0  0  0  0  0  0  0  0  0  0
   18.7881   22.7760   30.3215 C   0  0  0  0  0  0  0  0  0  0  0  0
   19.1492   23.7865   29.4064 C   0  0  0  0  0  0  0  0  0  0  0  0
   19.3407   23.4815   27.9996 N   0  0  0  0  0  0  0  0  0  0  0  0
   19.1811   24.5273   26.9788 C   0  0  0  0  0  0  0  0  0  0  0  0
   19.7078   22.1237   27.5747 C   0  0  0  0  0  0  0  0  0  0  0  0
   19.3248   25.0992   29.8930 C   0  0  0  0  0  0  0  0  0  0  0  0
   19.1498   25.3891   31.2503 C   0  0  0  0  0  0  0  0  0  0  0  0
   22.2825   23.9171   34.7531 C   0  0  0  0  0  0  0  0  0  0  0  0
   23.0124   24.4336   35.9963 C   0  0  0  0  0  0  0  0  0  0  0  0
  1  2  1  0
  2  3  2  0
  2  4  1  0
  4  5  2  0
  5  6  1  0
  6  7  2  0
  7  8  1  0
  8  9  2  0
  9 10  1  0
 10 11  2  0
 11 12  1  0
 12 13  2  0
 13 14  1  0
  1 15  1  0
 15 16  1  0
 16 17  1  0
 17 18  1  0
 18 19  1  0
 19 20  2  0
 19 21  1  0
 21 22  1  0
 22 23  2  0
 23 24  1  0
 24 25  2  0
 25 26  1  0
 26 27  1  0
 26 28  1  0
 25 29  1  0
 29 30  2  0
 18 31  1  0
 31 32  1  0
 13  4  1  0
 32 15  1  0
 12  7  1  0
 30 22  1  0
M  END
>  <AAScore>  (1) 
603.0265058078186

>  <RootName>  (1) 
./4ZLY/04_DeltaGEst/trajectory_01/rank_00/lead_0019

$$$$
