confid_14
     RDKit          3D

 29 32  0  0  0  0  0  0  0  0999 V2000
   24.5700   26.8800   35.5900 N   0  0  0  0  0  0  0  0  0  0  0  0
   25.5000   26.4000   34.6900 C   0  0  0  0  0  0  0  0  0  0  0  0
   25.1700   25.5200   33.9100 O   0  0  0  0  0  0  0  0  0  0  0  0
   26.8400   27.0200   34.7400 C   0  0  0  0  0  0  0  0  0  0  0  0
   27.3800   27.2800   35.9400 N   0  0  0  0  0  0  0  0  0  0  0  0
   28.6200   27.7400   36.0300 N   0  0  0  0  0  0  0  0  0  0  0  0
   29.3800   28.0000   34.9600 C   0  0  0  0  0  0  0  0  0  0  0  0
   30.6700   28.5000   35.1300 C   0  0  0  0  0  0  0  0  0  0  0  0
   31.5400   28.6100   34.0300 C   0  0  0  0  0  0  0  0  0  0  0  0
   31.0900   28.2200   32.7700 C   0  0  0  0  0  0  0  0  0  0  0  0
   29.8000   27.7000   32.6000 C   0  0  0  0  0  0  0  0  0  0  0  0
   28.9600   27.5500   33.7100 C   0  0  0  0  0  0  0  0  0  0  0  0
   27.6600   27.0300   33.5900 C   0  0  0  0  0  0  0  0  0  0  0  0
   27.1600   26.7400   32.3400 N   0  0  0  0  0  0  0  0  0  0  0  0
   23.1489   26.6952   35.4668 C   0  0  0  0  0  0  0  0  0  0  0  0
   22.4016   26.5823   36.5916 N   0  0  0  0  0  0  0  0  0  0  0  0
   21.0562   26.4218   36.5518 C   0  0  0  0  0  0  0  0  0  0  0  0
   20.3677   26.3678   35.3257 C   0  0  0  0  0  0  0  0  0  0  0  0
   18.8580   26.2629   35.3965 C   0  0  0  0  0  0  0  0  0  0  0  0
   18.3072   25.3888   34.3600 N   0  0  0  0  0  0  0  0  0  0  0  0
   17.8251   24.0453   34.6894 C   0  0  0  0  0  0  0  0  0  0  0  0
   18.1606   25.8860   33.0238 C   0  0  0  0  0  0  0  0  0  0  0  0
   17.2606   25.4195   32.2726 O   0  0  0  0  0  0  0  0  0  0  0  0
   19.1079   26.9232   32.4973 C   0  0  0  0  0  0  0  0  0  0  0  0
   18.8938   27.0863   31.1374 F   0  0  0  0  0  0  0  0  0  0  0  0
   18.8924   28.1449   33.1106 F   0  0  0  0  0  0  0  0  0  0  0  0
   20.5538   26.4594   32.7079 C   0  0  0  0  0  0  0  0  0  0  0  0
   21.1150   26.5469   34.1228 C   0  0  0  0  0  0  0  0  0  0  0  0
   22.5119   26.6941   34.2189 C   0  0  0  0  0  0  0  0  0  0  0  0
  1  2  1  0
  2  3  2  0
  2  4  1  0
  4  5  2  0
  5  6  1  0
  6  7  2  0
  7  8  1  0
  8  9  2  0
  9 10  1  0
 10 11  2  0
 11 12  1  0
 12 13  2  0
 13 14  1  0
  1 15  1  0
 15 16  2  0
 16 17  1  0
 17 18  2  0
 18 19  1  0
 19 20  1  0
 20 21  1  0
 20 22  1  0
 22 23  2  0
 22 24  1  0
 24 25  1  0
 24 26  1  0
 24 27  1  0
 27 28  1  0
 28 29  2  0
 13  4  1  0
 29 15  1  0
 12  7  1  0
 28 18  1  0
M  END
>  <AAScore>  (1) 
1964.136238344042

>  <RootName>  (1) 
./4ZLY/04_DeltaGEst/trajectory_05/rank_00/lead_0271

$$$$
