confid_16
     RDKit          3D

 30 34  0  0  0  0  0  0  0  0999 V2000
   24.5500   26.3900   36.2500 N   0  0  0  0  0  0  0  0  0  0  0  0
   25.6000   26.1300   35.4000 C   0  0  0  0  0  0  0  0  0  0  0  0
   25.4300   25.4300   34.4200 O   0  0  0  0  0  0  0  0  0  0  0  0
   26.9800   26.6300   35.7100 C   0  0  0  0  0  0  0  0  0  0  0  0
   27.3200   26.8200   36.9800 N   0  0  0  0  0  0  0  0  0  0  0  0
   28.4700   27.4000   37.3100 N   0  0  0  0  0  0  0  0  0  0  0  0
   29.4000   27.6300   36.3700 C   0  0  0  0  0  0  0  0  0  0  0  0
   30.6600   28.0500   36.8000 C   0  0  0  0  0  0  0  0  0  0  0  0
   31.5700   28.3600   35.7800 C   0  0  0  0  0  0  0  0  0  0  0  0
   31.3700   28.1000   34.4300 C   0  0  0  0  0  0  0  0  0  0  0  0
   30.1200   27.5900   34.0500 C   0  0  0  0  0  0  0  0  0  0  0  0
   29.1500   27.3400   35.0300 C   0  0  0  0  0  0  0  0  0  0  0  0
   27.8800   26.8900   34.6600 C   0  0  0  0  0  0  0  0  0  0  0  0
   27.4800   26.6100   33.3700 N   0  0  0  0  0  0  0  0  0  0  0  0
   23.2913   25.6868   36.2443 C   0  0  0  0  0  0  0  0  0  0  0  0
   23.2471   24.4925   35.7160 N   0  0  0  0  0  0  0  0  0  0  0  0
   22.2060   23.5297   35.4793 C   0  0  0  0  0  0  0  0  0  0  0  0
   20.9542   23.8602   35.1779 C   0  0  0  0  0  0  0  0  0  0  0  0
   19.9242   23.3575   34.2054 C   0  0  0  0  0  0  0  0  0  0  0  0
   19.1228   24.4943   34.2727 O   0  0  0  0  0  0  0  0  0  0  0  0
   19.9494   24.9642   35.2866 C   0  0  2  0  0  0  0  0  0  0  0  0
   20.5608   26.3391   35.0270 C   0  0  0  0  0  0  0  0  0  0  0  0
   21.0236   26.8426   36.3682 C   0  0  0  0  0  0  0  0  0  0  0  0
   20.1451   27.6457   37.1163 C   0  0  0  0  0  0  0  0  0  0  0  0
   20.4239   27.9298   38.4580 C   0  0  0  0  0  0  0  0  0  0  0  0
   19.5185   28.8216   39.2574 C   0  0  0  0  0  0  0  0  0  0  0  0
   19.8248   30.2907   38.9761 C   0  0  0  0  0  0  0  0  0  0  0  0
   21.5395   27.4144   39.0342 N   0  0  0  0  0  0  0  0  0  0  0  0
   22.4007   26.6191   38.3487 C   0  0  0  0  0  0  0  0  0  0  0  0
   22.1742   26.3110   36.9966 C   0  0  0  0  0  0  0  0  0  0  0  0
  1  2  1  0
  2  3  2  0
  2  4  1  0
  4  5  2  0
  5  6  1  0
  6  7  2  0
  7  8  1  0
  8  9  2  0
  9 10  1  0
 10 11  2  0
 11 12  1  0
 12 13  2  0
 13 14  1  0
  1 15  1  0
 15 16  2  0
 16 17  1  0
 17 18  2  0
 18 19  1  0
 19 20  1  0
 20 21  1  0
 21 22  1  6
 22 23  1  0
 23 24  2  0
 24 25  1  0
 25 26  1  0
 26 27  1  0
 25 28  2  0
 28 29  1  0
 29 30  2  0
 13  4  1  0
 30 15  1  0
 12  7  1  0
 21 18  1  0
 30 23  1  0
M  END
>  <AAScore>  (1) 
4985.908796422136

>  <RootName>  (1) 
./4ZLY/04_DeltaGEst/trajectory_01/rank_00/lead_0192

$$$$
