confid_17
     RDKit          3D

 28 31  0  0  0  0  0  0  0  0999 V2000
   25.3300   26.2600   34.7600 N   0  0  0  0  0  0  0  0  0  0  0  0
   26.1200   25.9200   33.6900 C   0  0  0  0  0  0  0  0  0  0  0  0
   25.6300   25.1100   32.9400 O   0  0  0  0  0  0  0  0  0  0  0  0
   27.5200   26.3800   33.4600 C   0  0  0  0  0  0  0  0  0  0  0  0
   28.1600   26.6300   34.6100 N   0  0  0  0  0  0  0  0  0  0  0  0
   29.4800   26.8500   34.5700 N   0  0  0  0  0  0  0  0  0  0  0  0
   30.1900   26.7800   33.4400 C   0  0  0  0  0  0  0  0  0  0  0  0
   31.5600   27.0500   33.5000 C   0  0  0  0  0  0  0  0  0  0  0  0
   32.2700   27.2400   32.3100 C   0  0  0  0  0  0  0  0  0  0  0  0
   31.6100   27.2500   31.0800 C   0  0  0  0  0  0  0  0  0  0  0  0
   30.2700   26.8700   31.0600 C   0  0  0  0  0  0  0  0  0  0  0  0
   29.5100   26.6900   32.2300 C   0  0  0  0  0  0  0  0  0  0  0  0
   28.1400   26.4100   32.2000 C   0  0  0  0  0  0  0  0  0  0  0  0
   27.4300   26.1300   31.0500 N   0  0  0  0  0  0  0  0  0  0  0  0
   23.9263   25.9596   34.8879 C   0  0  0  0  0  0  0  0  0  0  0  0
   23.1524   25.5029   33.8833 N   0  0  0  0  0  0  0  0  0  0  0  0
   21.9205   25.4221   34.4303 C   0  0  0  0  0  0  0  0  0  0  0  0
   20.7334   24.9285   33.6607 C   0  0  0  0  0  0  0  0  0  0  0  0
   19.6405   26.0083   33.5312 C   0  0  0  0  0  0  0  0  0  0  0  0
   19.4642   26.8265   34.7606 N   0  0  0  0  0  0  0  0  0  0  0  0
   19.3747   25.9560   35.9605 C   0  0  0  0  0  0  0  0  0  0  0  0
   20.7416   25.8642   36.6560 C   0  0  0  0  0  0  0  0  0  0  0  0
   21.8842   25.8273   35.7257 N   0  0  0  0  0  0  0  0  0  0  0  0
   23.1625   26.1418   36.0248 C   0  0  0  0  0  0  0  0  0  0  0  0
   23.6410   26.6648   37.3486 C   0  0  0  0  0  0  0  0  0  0  0  0
   18.3244   27.7893   34.6918 C   0  0  0  0  0  0  0  0  0  0  0  0
   18.1522   28.4467   33.3050 C   0  0  0  0  0  0  0  0  0  0  0  0
   18.5392   28.9178   35.7189 C   0  0  0  0  0  0  0  0  0  0  0  0
  1  2  1  0
  2  3  2  0
  2  4  1  0
  4  5  2  0
  5  6  1  0
  6  7  2  0
  7  8  1  0
  8  9  2  0
  9 10  1  0
 10 11  2  0
 11 12  1  0
 12 13  2  0
 13 14  1  0
  1 15  1  0
 15 16  1  0
 16 17  2  0
 17 18  1  0
 18 19  1  0
 19 20  1  0
 20 21  1  0
 21 22  1  0
 22 23  1  0
 23 24  1  0
 24 25  1  0
 20 26  1  0
 26 27  1  0
 26 28  1  0
 13  4  1  0
 24 15  2  0
 12  7  1  0
 23 17  1  0
M  END
>  <AAScore>  (1) 
6358.491704809862

>  <RootName>  (1) 
./4ZLY/04_DeltaGEst/trajectory_03/rank_00/lead_0111

$$$$
