confid_4
     RDKit          3D

 28 31  0  0  0  0  0  0  0  0999 V2000
   24.5700   26.8800   35.5900 N   0  0  0  0  0  0  0  0  0  0  0  0
   25.5000   26.4000   34.6900 C   0  0  0  0  0  0  0  0  0  0  0  0
   25.1700   25.5200   33.9100 O   0  0  0  0  0  0  0  0  0  0  0  0
   26.8400   27.0200   34.7400 C   0  0  0  0  0  0  0  0  0  0  0  0
   27.3800   27.2800   35.9400 N   0  0  0  0  0  0  0  0  0  0  0  0
   28.6200   27.7400   36.0300 N   0  0  0  0  0  0  0  0  0  0  0  0
   29.3800   28.0000   34.9600 C   0  0  0  0  0  0  0  0  0  0  0  0
   30.6700   28.5000   35.1300 C   0  0  0  0  0  0  0  0  0  0  0  0
   31.5400   28.6100   34.0300 C   0  0  0  0  0  0  0  0  0  0  0  0
   31.0900   28.2200   32.7700 C   0  0  0  0  0  0  0  0  0  0  0  0
   29.8000   27.7000   32.6000 C   0  0  0  0  0  0  0  0  0  0  0  0
   28.9600   27.5500   33.7100 C   0  0  0  0  0  0  0  0  0  0  0  0
   27.6600   27.0300   33.5900 C   0  0  0  0  0  0  0  0  0  0  0  0
   27.1600   26.7400   32.3400 N   0  0  0  0  0  0  0  0  0  0  0  0
   23.1506   26.6719   35.4843 C   0  0  0  0  0  0  0  0  0  0  0  0
   22.4162   26.5669   36.6203 N   0  0  0  0  0  0  0  0  0  0  0  0
   21.0726   26.3843   36.5989 C   0  0  0  0  0  0  0  0  0  0  0  0
   20.3778   26.2979   35.3816 C   0  0  0  0  0  0  0  0  0  0  0  0
   18.8748   26.1401   35.4443 C   0  0  0  0  0  0  0  0  0  0  0  0
   18.3834   25.3024   34.3475 N   0  0  0  0  0  0  0  0  0  0  0  0
   18.0052   25.9616   33.0899 C   0  0  0  0  0  0  0  0  0  0  0  0
   19.0849   26.9586   32.6473 C   0  0  0  0  0  0  0  0  0  0  0  0
   20.4949   26.3639   32.7772 C   0  0  0  0  0  0  0  0  0  0  0  0
   21.1065   26.4686   34.1688 C   0  0  0  0  0  0  0  0  0  0  0  0
   22.5004   26.6407   34.2419 C   0  0  0  0  0  0  0  0  0  0  0  0
   18.3427   23.8663   34.5069 C   0  0  0  0  0  0  0  0  0  0  0  0
   18.9886   23.3220   35.4439 O   0  0  0  0  0  0  0  0  0  0  0  0
   17.5644   22.9895   33.5732 C   0  0  0  0  0  0  0  0  0  0  0  0
  1  2  1  0
  2  3  2  0
  2  4  1  0
  4  5  2  0
  5  6  1  0
  6  7  2  0
  7  8  1  0
  8  9  2  0
  9 10  1  0
 10 11  2  0
 11 12  1  0
 12 13  2  0
 13 14  1  0
  1 15  1  0
 15 16  2  0
 16 17  1  0
 17 18  2  0
 18 19  1  0
 19 20  1  0
 20 21  1  0
 21 22  1  0
 22 23  1  0
 23 24  1  0
 24 25  2  0
 20 26  1  0
 26 27  2  0
 26 28  1  0
 13  4  1  0
 25 15  1  0
 12  7  1  0
 24 18  1  0
M  END
>  <AAScore>  (1) 
2093.0239149996287

>  <RootName>  (1) 
./4ZLY/04_DeltaGEst/trajectory_05/rank_00/lead_0270

$$$$
