confid_0
     RDKit          3D

 27 30  0  0  0  0  0  0  0  0999 V2000
   24.2000   26.2400   35.6900 N   0  0  0  0  0  0  0  0  0  0  0  0
   24.8500   26.2800   34.4800 C   0  0  0  0  0  0  0  0  0  0  0  0
   24.3100   25.7400   33.5400 O   0  0  0  0  0  0  0  0  0  0  0  0
   26.1800   26.9700   34.4700 C   0  0  0  0  0  0  0  0  0  0  0  0
   26.6500   27.6000   35.5500 N   0  0  0  0  0  0  0  0  0  0  0  0
   27.7900   28.2700   35.6200 N   0  0  0  0  0  0  0  0  0  0  0  0
   28.5400   28.3000   34.5100 C   0  0  0  0  0  0  0  0  0  0  0  0
   29.7700   28.9400   34.5600 C   0  0  0  0  0  0  0  0  0  0  0  0
   30.7000   28.8900   33.5000 C   0  0  0  0  0  0  0  0  0  0  0  0
   30.3700   28.1400   32.3700 C   0  0  0  0  0  0  0  0  0  0  0  0
   29.1200   27.5200   32.2800 C   0  0  0  0  0  0  0  0  0  0  0  0
   28.2100   27.6100   33.3300 C   0  0  0  0  0  0  0  0  0  0  0  0
   26.9700   26.9700   33.3100 C   0  0  0  0  0  0  0  0  0  0  0  0
   26.5300   26.2400   32.2200 N   0  0  0  0  0  0  0  0  0  0  0  0
   30.1455   29.6545   35.7540 N   0  0  0  0  0  0  0  0  0  0  0  0
   30.5510   31.0757   35.6918 C   0  0  0  0  0  0  0  0  0  0  0  0
   29.3408   32.0280   35.7939 C   0  0  0  0  0  0  0  0  0  0  0  0
   28.4487   31.8165   37.0419 C   0  0  2  0  0  0  0  0  0  0  0  0
   28.8874   32.2251   38.2920 C   0  0  0  0  0  0  0  0  0  0  0  0
   29.0055   30.7739   37.9487 N   0  0  0  0  0  0  0  0  0  0  0  0
   29.6350   29.5060   38.0589 C   0  0  0  0  0  0  0  0  0  0  0  0
   30.1405   28.9711   36.9894 N   0  0  0  0  0  0  0  0  0  0  0  0
   29.7795   28.8433   39.3911 C   0  0  0  0  0  0  0  0  0  0  0  0
   30.8691   29.3777   40.0535 F   0  0  0  0  0  0  0  0  0  0  0  0
   29.9650   27.4809   39.2352 F   0  0  0  0  0  0  0  0  0  0  0  0
   28.6411   29.0574   40.1461 F   0  0  0  0  0  0  0  0  0  0  0  0
   26.9410   31.6491   36.8299 C   0  0  0  0  0  0  0  0  0  0  0  0
  1  2  1  0
  2  3  2  0
  2  4  1  0
  4  5  2  0
  5  6  1  0
  6  7  2  0
  7  8  1  0
  8  9  2  0
  9 10  1  0
 10 11  2  0
 11 12  1  0
 12 13  2  0
 13 14  1  0
  8 15  1  0
 15 16  1  0
 16 17  1  0
 17 18  1  0
 18 19  1  0
 19 20  1  0
 20 21  1  0
 21 22  2  0
 21 23  1  0
 23 24  1  0
 23 25  1  0
 23 26  1  0
 18 27  1  6
 13  4  1  0
 22 15  1  0
 12  7  1  0
 20 18  1  0
M  END
>  <AAScore>  (1) 
-7.4660564390229025

>  <RootName>  (1) 
./4ZLY/04_DeltaGEst/trajectory_04/rank_01/lead_0349

$$$$
