confid_13
     RDKit          3D

 28 31  0  0  0  0  0  0  0  0999 V2000
   24.6900   26.1200   35.5300 N   0  0  0  0  0  0  0  0  0  0  0  0
   25.6600   25.6700   34.6600 C   0  0  0  0  0  0  0  0  0  0  0  0
   25.2400   25.0100   33.7200 O   0  0  0  0  0  0  0  0  0  0  0  0
   27.0300   26.2200   34.8800 C   0  0  0  0  0  0  0  0  0  0  0  0
   27.3500   26.7300   36.0700 N   0  0  0  0  0  0  0  0  0  0  0  0
   28.5700   27.1800   36.3300 N   0  0  0  0  0  0  0  0  0  0  0  0
   29.5300   27.1100   35.3900 C   0  0  0  0  0  0  0  0  0  0  0  0
   30.8300   27.5700   35.6500 C   0  0  0  0  0  0  0  0  0  0  0  0
   31.8500   27.5400   34.6900 C   0  0  0  0  0  0  0  0  0  0  0  0
   31.5100   27.1200   33.4000 C   0  0  0  0  0  0  0  0  0  0  0  0
   30.2200   26.6300   33.1100 C   0  0  0  0  0  0  0  0  0  0  0  0
   29.2400   26.6600   34.1000 C   0  0  0  0  0  0  0  0  0  0  0  0
   27.9300   26.2600   33.8100 C   0  0  0  0  0  0  0  0  0  0  0  0
   27.5200   25.7100   32.6100 N   0  0  0  0  0  0  0  0  0  0  0  0
   23.3237   25.5774   35.5739 C   0  0  0  0  0  0  0  0  0  0  0  0
   22.4321   26.3375   34.5678 C   0  0  0  0  0  0  0  0  0  0  0  0
   20.9605   26.3118   35.0022 C   0  0  0  0  0  0  0  0  0  0  0  0
   20.7410   26.9423   36.3330 N   0  0  0  0  0  0  0  0  0  0  0  0
   21.9292   26.9152   37.2212 C   0  0  0  0  0  0  0  0  0  0  0  0
   22.7637   25.6466   37.0138 C   0  0  0  0  0  0  0  0  0  0  0  0
   20.2128   28.3172   36.2178 C   0  0  0  0  0  0  0  0  0  0  0  0
   18.7513   28.2912   35.8391 C   0  0  0  0  0  0  0  0  0  0  0  0
   18.2985   28.7979   34.6024 C   0  0  0  0  0  0  0  0  0  0  0  0
   19.2003   29.3471   33.6909 O   0  0  0  0  0  0  0  0  0  0  0  0
   16.9324   28.7469   34.2867 C   0  0  0  0  0  0  0  0  0  0  0  0
   16.0198   28.1968   35.1897 C   0  0  0  0  0  0  0  0  0  0  0  0
   16.4641   27.6942   36.4137 C   0  0  0  0  0  0  0  0  0  0  0  0
   17.8221   27.7403   36.7382 C   0  0  0  0  0  0  0  0  0  0  0  0
  1  2  1  0
  2  3  2  0
  2  4  1  0
  4  5  2  0
  5  6  1  0
  6  7  2  0
  7  8  1  0
  8  9  2  0
  9 10  1  0
 10 11  2  0
 11 12  1  0
 12 13  2  0
 13 14  1  0
  1 15  1  0
 15 16  1  0
 16 17  1  0
 17 18  1  0
 18 19  1  0
 19 20  1  0
 18 21  1  0
 21 22  1  0
 22 23  2  0
 23 24  1  0
 23 25  1  0
 25 26  2  0
 26 27  1  0
 27 28  2  0
 13  4  1  0
 20 15  1  0
 28 22  1  0
 12  7  1  0
M  END
>  <AAScore>  (1) 
192.9167647809345

>  <RootName>  (1) 
./4ZLY/04_DeltaGEst/trajectory_02/rank_00/lead_0206

$$$$
