confid_3
     RDKit          3D

 29 32  0  0  0  0  0  0  0  0999 V2000
   24.6900   26.1200   35.5300 N   0  0  0  0  0  0  0  0  0  0  0  0
   25.6600   25.6700   34.6600 C   0  0  0  0  0  0  0  0  0  0  0  0
   25.2400   25.0100   33.7200 O   0  0  0  0  0  0  0  0  0  0  0  0
   27.0300   26.2200   34.8800 C   0  0  0  0  0  0  0  0  0  0  0  0
   27.3500   26.7300   36.0700 N   0  0  0  0  0  0  0  0  0  0  0  0
   28.5700   27.1800   36.3300 N   0  0  0  0  0  0  0  0  0  0  0  0
   29.5300   27.1100   35.3900 C   0  0  0  0  0  0  0  0  0  0  0  0
   30.8300   27.5700   35.6500 C   0  0  0  0  0  0  0  0  0  0  0  0
   31.8500   27.5400   34.6900 C   0  0  0  0  0  0  0  0  0  0  0  0
   31.5100   27.1200   33.4000 C   0  0  0  0  0  0  0  0  0  0  0  0
   30.2200   26.6300   33.1100 C   0  0  0  0  0  0  0  0  0  0  0  0
   29.2400   26.6600   34.1000 C   0  0  0  0  0  0  0  0  0  0  0  0
   27.9300   26.2600   33.8100 C   0  0  0  0  0  0  0  0  0  0  0  0
   27.5200   25.7100   32.6100 N   0  0  0  0  0  0  0  0  0  0  0  0
   31.1850   28.0720   37.0013 C   0  0  0  0  0  0  0  0  0  0  0  0
   30.9696   27.2852   38.1429 C   0  0  0  0  0  0  0  0  0  0  0  0
   31.3255   27.7641   39.4115 C   0  0  0  0  0  0  0  0  0  0  0  0
   31.0356   26.9400   40.6454 C   0  0  0  0  0  0  0  0  0  0  0  0
   31.9213   27.2534   41.7934 N   0  0  0  0  0  0  0  0  0  0  0  0
   32.6393   28.5153   41.7799 C   0  0  0  0  0  0  0  0  0  0  0  0
   33.6179   28.7174   42.5472 O   0  0  0  0  0  0  0  0  0  0  0  0
   32.2153   29.6133   40.8560 C   0  0  0  0  0  0  0  0  0  0  0  0
   31.8833   29.0465   39.5162 C   0  0  0  0  0  0  0  0  0  0  0  0
   32.0800   29.7973   38.3991 N   0  0  0  0  0  0  0  0  0  0  0  0
   31.7591   29.3415   37.1603 C   0  0  0  0  0  0  0  0  0  0  0  0
   31.9647   26.3636   42.9988 C   0  0  0  0  0  0  0  0  0  0  0  0
   30.9425   25.1973   42.9161 C   0  0  0  0  0  0  0  0  0  0  0  0
   33.3685   25.7381   43.1377 C   0  0  0  0  0  0  0  0  0  0  0  0
   31.6191   27.1721   44.2714 C   0  0  0  0  0  0  0  0  0  0  0  0
  1  2  1  0
  2  3  2  0
  2  4  1  0
  4  5  2  0
  5  6  1  0
  6  7  2  0
  7  8  1  0
  8  9  2  0
  9 10  1  0
 10 11  2  0
 11 12  1  0
 12 13  2  0
 13 14  1  0
  8 15  1  0
 15 16  2  0
 16 17  1  0
 17 18  1  0
 18 19  1  0
 19 20  1  0
 20 21  2  0
 20 22  1  0
 22 23  1  0
 23 24  1  0
 24 25  2  0
 19 26  1  0
 26 27  1  0
 26 28  1  0
 26 29  1  0
 13  4  1  0
 25 15  1  0
 12  7  1  0
 23 17  2  0
M  END
>  <AAScore>  (1) 
392.97420176272726

>  <RootName>  (1) 
./4ZLY/04_DeltaGEst/trajectory_02/rank_01/lead_0414

$$$$
