confid_1
     RDKit          3D

 27 30  0  0  0  0  0  0  0  0999 V2000
   24.2000   26.2400   35.6900 N   0  0  0  0  0  0  0  0  0  0  0  0
   24.8500   26.2800   34.4800 C   0  0  0  0  0  0  0  0  0  0  0  0
   24.3100   25.7400   33.5400 O   0  0  0  0  0  0  0  0  0  0  0  0
   26.1800   26.9700   34.4700 C   0  0  0  0  0  0  0  0  0  0  0  0
   26.6500   27.6000   35.5500 N   0  0  0  0  0  0  0  0  0  0  0  0
   27.7900   28.2700   35.6200 N   0  0  0  0  0  0  0  0  0  0  0  0
   28.5400   28.3000   34.5100 C   0  0  0  0  0  0  0  0  0  0  0  0
   29.7700   28.9400   34.5600 C   0  0  0  0  0  0  0  0  0  0  0  0
   30.7000   28.8900   33.5000 C   0  0  0  0  0  0  0  0  0  0  0  0
   30.3700   28.1400   32.3700 C   0  0  0  0  0  0  0  0  0  0  0  0
   29.1200   27.5200   32.2800 C   0  0  0  0  0  0  0  0  0  0  0  0
   28.2100   27.6100   33.3300 C   0  0  0  0  0  0  0  0  0  0  0  0
   26.9700   26.9700   33.3100 C   0  0  0  0  0  0  0  0  0  0  0  0
   26.5300   26.2400   32.2200 N   0  0  0  0  0  0  0  0  0  0  0  0
   30.1428   29.6592   35.7470 N   0  0  0  0  0  0  0  0  0  0  0  0
   30.7164   28.9258   36.8771 C   0  0  0  0  0  0  0  0  0  0  0  0
   30.3603   29.6170   38.1937 C   0  0  0  0  0  0  0  0  0  0  0  0
   30.7494   31.0777   38.1641 C   0  0  0  0  0  0  0  0  0  0  0  0
   31.1296   31.7190   39.3547 C   0  0  0  0  0  0  0  0  0  0  0  0
   31.1877   31.0326   40.5245 F   0  0  0  0  0  0  0  0  0  0  0  0
   31.4450   33.0750   39.3523 C   0  0  0  0  0  0  0  0  0  0  0  0
   31.3831   33.8090   38.1708 C   0  0  0  0  0  0  0  0  0  0  0  0
   30.9953   33.2010   36.9651 C   0  0  0  0  0  0  0  0  0  0  0  0
   30.6453   31.8209   36.9618 C   0  0  0  0  0  0  0  0  0  0  0  0
   30.1806   31.0978   35.7435 C   0  0  0  0  0  0  0  0  0  0  0  0
   29.7744   31.7267   34.7291 O   0  0  0  0  0  0  0  0  0  0  0  0
   30.9725   34.0458   35.7171 C   0  0  0  0  0  0  0  0  0  0  0  0
  1  2  1  0
  2  3  2  0
  2  4  1  0
  4  5  2  0
  5  6  1  0
  6  7  2  0
  7  8  1  0
  8  9  2  0
  9 10  1  0
 10 11  2  0
 11 12  1  0
 12 13  2  0
 13 14  1  0
  8 15  1  0
 15 16  1  0
 16 17  1  0
 17 18  1  0
 18 19  2  0
 19 20  1  0
 19 21  1  0
 21 22  2  0
 22 23  1  0
 23 24  2  0
 24 25  1  0
 25 26  2  0
 23 27  1  0
 13  4  1  0
 25 15  1  0
 12  7  1  0
 24 18  1  0
M  END
>  <AAScore>  (1) 
-8.270044102280023

>  <RootName>  (1) 
./4ZLY/04_DeltaGEst/trajectory_04/rank_01/lead_0413

$$$$
