confid_3
     RDKit          3D

 31 35  0  0  0  0  0  0  0  0999 V2000
   24.4800   26.1000   36.1300 N   0  0  0  0  0  0  0  0  0  0  0  0
   25.2500   26.2500   34.9900 C   0  0  0  0  0  0  0  0  0  0  0  0
   24.7400   25.7600   33.9900 O   0  0  0  0  0  0  0  0  0  0  0  0
   26.5900   26.8900   34.9600 C   0  0  0  0  0  0  0  0  0  0  0  0
   27.0600   27.2400   36.1600 N   0  0  0  0  0  0  0  0  0  0  0  0
   28.3000   27.7100   36.2400 N   0  0  0  0  0  0  0  0  0  0  0  0
   29.0500   27.9600   35.1500 C   0  0  0  0  0  0  0  0  0  0  0  0
   30.3400   28.4900   35.2600 C   0  0  0  0  0  0  0  0  0  0  0  0
   31.1100   28.8200   34.1400 C   0  0  0  0  0  0  0  0  0  0  0  0
   30.5200   28.6700   32.8800 C   0  0  0  0  0  0  0  0  0  0  0  0
   29.2900   28.0200   32.7700 C   0  0  0  0  0  0  0  0  0  0  0  0
   28.5200   27.7100   33.8900 C   0  0  0  0  0  0  0  0  0  0  0  0
   27.2700   27.0800   33.7600 C   0  0  0  0  0  0  0  0  0  0  0  0
   26.7500   26.8800   32.4900 N   0  0  0  0  0  0  0  0  0  0  0  0
   23.3933   25.1707   36.2564 C   0  0  0  0  0  0  0  0  0  0  0  0
   22.2595   25.4945   36.7955 N   0  0  0  0  0  0  0  0  0  0  0  0
   21.4058   24.3454   36.7039 C   0  0  0  0  0  0  0  0  0  0  0  0
   22.0243   23.3381   36.1018 C   0  0  0  0  0  0  0  0  0  0  0  0
   21.5610   21.9054   35.9470 C   0  0  0  0  0  0  0  0  0  0  0  0
   22.5891   21.0497   35.3001 N   0  0  0  0  0  0  0  0  0  0  0  0
   22.2109   19.7213   34.8854 C   0  0  0  0  0  0  0  0  0  0  0  0
   21.3578   19.0899   35.5692 O   0  0  0  0  0  0  0  0  0  0  0  0
   22.7449   19.1116   33.6003 C   0  0  0  0  0  0  0  0  0  0  0  0
   22.3906   20.0049   32.4058 C   0  0  0  0  0  0  0  0  0  0  0  0
   22.2123   17.6893   33.3684 C   0  0  0  0  0  0  0  0  0  0  0  0
   23.9395   21.5498   35.1517 C   0  0  0  0  0  0  0  0  0  0  0  0
   24.9898   20.8360   34.9152 N   0  0  0  0  0  0  0  0  0  0  0  0
   26.0995   21.7448   34.9679 C   0  0  0  0  0  0  0  0  0  0  0  0
   25.7235   22.9893   35.2607 C   0  0  0  0  0  0  0  0  0  0  0  0
   24.2818   22.9250   35.3952 C   0  0  0  0  0  0  0  0  0  0  0  0
   23.3604   23.7875   35.7960 C   0  0  0  0  0  0  0  0  0  0  0  0
  1  2  1  0
  2  3  2  0
  2  4  1  0
  4  5  2  0
  5  6  1  0
  6  7  2  0
  7  8  1  0
  8  9  2  0
  9 10  1  0
 10 11  2  0
 11 12  1  0
 12 13  2  0
 13 14  1  0
  1 15  1  0
 15 16  2  0
 16 17  1  0
 17 18  2  0
 18 19  1  0
 19 20  1  0
 20 21  1  0
 21 22  2  0
 21 23  1  0
 23 24  1  0
 23 25  1  0
 20 26  1  0
 26 27  2  0
 27 28  1  0
 28 29  2  0
 29 30  1  0
 30 31  2  0
 13  4  1  0
 31 15  1  0
 12  7  1  0
 31 18  1  0
 30 26  1  0
M  END
>  <AAScore>  (1) 
3092.618442572302

>  <RootName>  (1) 
./4ZLY/04_DeltaGEst/trajectory_00/rank_00/lead_0170

$$$$
