confid_13
     RDKit          3D

 27 30  0  0  0  0  0  0  0  0999 V2000
   24.2000   26.2400   35.6900 N   0  0  0  0  0  0  0  0  0  0  0  0
   24.8500   26.2800   34.4800 C   0  0  0  0  0  0  0  0  0  0  0  0
   24.3100   25.7400   33.5400 O   0  0  0  0  0  0  0  0  0  0  0  0
   26.1800   26.9700   34.4700 C   0  0  0  0  0  0  0  0  0  0  0  0
   26.6500   27.6000   35.5500 N   0  0  0  0  0  0  0  0  0  0  0  0
   27.7900   28.2700   35.6200 N   0  0  0  0  0  0  0  0  0  0  0  0
   28.5400   28.3000   34.5100 C   0  0  0  0  0  0  0  0  0  0  0  0
   29.7700   28.9400   34.5600 C   0  0  0  0  0  0  0  0  0  0  0  0
   30.7000   28.8900   33.5000 C   0  0  0  0  0  0  0  0  0  0  0  0
   30.3700   28.1400   32.3700 C   0  0  0  0  0  0  0  0  0  0  0  0
   29.1200   27.5200   32.2800 C   0  0  0  0  0  0  0  0  0  0  0  0
   28.2100   27.6100   33.3300 C   0  0  0  0  0  0  0  0  0  0  0  0
   26.9700   26.9700   33.3100 C   0  0  0  0  0  0  0  0  0  0  0  0
   26.5300   26.2400   32.2200 N   0  0  0  0  0  0  0  0  0  0  0  0
   30.1682   29.6232   35.7593 N   0  0  0  0  0  0  0  0  0  0  0  0
   30.8505   28.8545   36.8121 C   0  0  0  0  0  0  0  0  0  0  0  0
   30.0154   28.7979   38.1008 C   0  0  0  0  0  0  0  0  0  0  0  0
   29.4923   30.1149   38.4812 N   0  0  0  0  0  0  0  0  0  0  0  0
   28.0955   30.2542   38.8982 C   0  0  0  0  0  0  0  0  0  0  0  0
   30.3099   31.2840   38.3244 C   0  0  0  0  0  0  0  0  0  0  0  0
   30.8484   31.9418   39.4512 C   0  0  0  0  0  0  0  0  0  0  0  0
   30.5633   31.4573   40.8475 C   0  0  0  0  0  0  0  0  0  0  0  0
   31.6257   33.0937   39.2662 C   0  0  0  0  0  0  0  0  0  0  0  0
   31.9034   33.5604   37.9809 C   0  0  0  0  0  0  0  0  0  0  0  0
   31.4008   32.8895   36.8658 C   0  0  0  0  0  0  0  0  0  0  0  0
   30.6035   31.7461   37.0250 C   0  0  0  0  0  0  0  0  0  0  0  0
   29.9794   31.0855   35.8106 C   0  0  0  0  0  0  0  0  0  0  0  0
  1  2  1  0
  2  3  2  0
  2  4  1  0
  4  5  2  0
  5  6  1  0
  6  7  2  0
  7  8  1  0
  8  9  2  0
  9 10  1  0
 10 11  2  0
 11 12  1  0
 12 13  2  0
 13 14  1  0
  8 15  1  0
 15 16  1  0
 16 17  1  0
 17 18  1  0
 18 19  1  0
 18 20  1  0
 20 21  2  0
 21 22  1  0
 21 23  1  0
 23 24  2  0
 24 25  1  0
 25 26  2  0
 26 27  1  0
 13  4  1  0
 27 15  1  0
 12  7  1  0
 26 20  1  0
M  END
>  <AAScore>  (1) 
-7.605028990509583

>  <RootName>  (1) 
./4ZLY/04_DeltaGEst/trajectory_04/rank_01/lead_0037

$$$$
