confid_8
     RDKit          3D

 29 32  0  0  0  0  0  0  0  0999 V2000
   24.5500   26.3900   36.2500 N   0  0  0  0  0  0  0  0  0  0  0  0
   25.6000   26.1300   35.4000 C   0  0  0  0  0  0  0  0  0  0  0  0
   25.4300   25.4300   34.4200 O   0  0  0  0  0  0  0  0  0  0  0  0
   26.9800   26.6300   35.7100 C   0  0  0  0  0  0  0  0  0  0  0  0
   27.3200   26.8200   36.9800 N   0  0  0  0  0  0  0  0  0  0  0  0
   28.4700   27.4000   37.3100 N   0  0  0  0  0  0  0  0  0  0  0  0
   29.4000   27.6300   36.3700 C   0  0  0  0  0  0  0  0  0  0  0  0
   30.6600   28.0500   36.8000 C   0  0  0  0  0  0  0  0  0  0  0  0
   31.5700   28.3600   35.7800 C   0  0  0  0  0  0  0  0  0  0  0  0
   31.3700   28.1000   34.4300 C   0  0  0  0  0  0  0  0  0  0  0  0
   30.1200   27.5900   34.0500 C   0  0  0  0  0  0  0  0  0  0  0  0
   29.1500   27.3400   35.0300 C   0  0  0  0  0  0  0  0  0  0  0  0
   27.8800   26.8900   34.6600 C   0  0  0  0  0  0  0  0  0  0  0  0
   27.4800   26.6100   33.3700 N   0  0  0  0  0  0  0  0  0  0  0  0
   30.9659   28.3100   38.1790 N   0  0  0  0  0  0  0  0  0  0  0  0
   32.0274   27.5325   38.8324 C   0  0  0  0  0  0  0  0  0  0  0  0
   32.2301   27.9772   40.2843 C   0  0  0  0  0  0  0  0  0  0  0  0
   30.9273   28.1480   40.9401 N   0  0  0  0  0  0  0  0  0  0  0  0
   30.6361   27.4441   42.1591 C   0  0  0  0  0  0  0  0  0  0  0  0
   30.7272   26.0431   42.1981 C   0  0  0  0  0  0  0  0  0  0  0  0
   30.4330   25.3484   43.3754 C   0  0  0  0  0  0  0  0  0  0  0  0
   30.5198   23.9954   43.4013 F   0  0  0  0  0  0  0  0  0  0  0  0
   30.0474   26.0482   44.5228 C   0  0  0  0  0  0  0  0  0  0  0  0
   29.7629   25.3765   45.6659 F   0  0  0  0  0  0  0  0  0  0  0  0
   29.9579   27.4429   44.4932 C   0  0  0  0  0  0  0  0  0  0  0  0
   30.2500   28.1422   43.3173 C   0  0  0  0  0  0  0  0  0  0  0  0
   30.1880   29.4970   43.3193 F   0  0  0  0  0  0  0  0  0  0  0  0
   29.8663   28.9304   40.2868 C   0  0  0  0  0  0  0  0  0  0  0  0
   30.2943   29.4031   38.8928 C   0  0  0  0  0  0  0  0  0  0  0  0
  1  2  1  0
  2  3  2  0
  2  4  1  0
  4  5  2  0
  5  6  1  0
  6  7  2  0
  7  8  1  0
  8  9  2  0
  9 10  1  0
 10 11  2  0
 11 12  1  0
 12 13  2  0
 13 14  1  0
  8 15  1  0
 15 16  1  0
 16 17  1  0
 17 18  1  0
 18 19  1  0
 19 20  2  0
 20 21  1  0
 21 22  1  0
 21 23  2  0
 23 24  1  0
 23 25  1  0
 25 26  2  0
 26 27  1  0
 18 28  1  0
 28 29  1  0
 13  4  1  0
 29 15  1  0
 12  7  1  0
 26 19  1  0
M  END
>  <AAScore>  (1) 
1175.7453288649076

>  <RootName>  (1) 
./4ZLY/04_DeltaGEst/trajectory_01/rank_01/lead_0327

$$$$
