confid_14
     RDKit          3D

 30 33  0  0  0  0  0  0  0  0999 V2000
   24.5700   26.8800   35.5900 N   0  0  0  0  0  0  0  0  0  0  0  0
   25.5000   26.4000   34.6900 C   0  0  0  0  0  0  0  0  0  0  0  0
   25.1700   25.5200   33.9100 O   0  0  0  0  0  0  0  0  0  0  0  0
   26.8400   27.0200   34.7400 C   0  0  0  0  0  0  0  0  0  0  0  0
   27.3800   27.2800   35.9400 N   0  0  0  0  0  0  0  0  0  0  0  0
   28.6200   27.7400   36.0300 N   0  0  0  0  0  0  0  0  0  0  0  0
   29.3800   28.0000   34.9600 C   0  0  0  0  0  0  0  0  0  0  0  0
   30.6700   28.5000   35.1300 C   0  0  0  0  0  0  0  0  0  0  0  0
   31.5400   28.6100   34.0300 C   0  0  0  0  0  0  0  0  0  0  0  0
   31.0900   28.2200   32.7700 C   0  0  0  0  0  0  0  0  0  0  0  0
   29.8000   27.7000   32.6000 C   0  0  0  0  0  0  0  0  0  0  0  0
   28.9600   27.5500   33.7100 C   0  0  0  0  0  0  0  0  0  0  0  0
   27.6600   27.0300   33.5900 C   0  0  0  0  0  0  0  0  0  0  0  0
   27.1600   26.7400   32.3400 N   0  0  0  0  0  0  0  0  0  0  0  0
   33.1606   29.2664   34.2319 S   0  0  0  0  0  6  0  0  0  0  0  0
   33.6258   29.0071   35.6379 O   0  0  0  0  0  0  0  0  0  0  0  0
   34.0916   28.5721   33.2788 O   0  0  0  0  0  0  0  0  0  0  0  0
   33.0916   31.0347   33.9218 C   0  0  0  0  0  0  0  0  0  0  0  0
   34.4547   31.7517   33.7711 C   0  0  2  0  0  0  0  0  0  0  0  0
   35.1284   31.4797   32.4131 C   0  0  0  0  0  0  0  0  0  0  0  0
   36.4246   32.2919   32.2741 C   0  0  0  0  0  0  0  0  0  0  0  0
   37.4194   31.9773   33.4242 C   0  0  1  0  0  0  0  0  0  0  0  0
   38.6344   32.8243   33.3089 N   0  0  0  0  0  0  0  0  0  0  0  0
   39.3816   32.6682   32.0497 C   0  0  0  0  0  0  0  0  0  0  0  0
   40.6955   32.3975   32.7579 C   0  0  0  0  0  0  0  0  0  0  0  0
   39.8664   32.4333   34.0428 C   0  0  0  0  0  0  0  0  0  0  0  0
   40.2962   33.5544   34.9982 C   0  0  0  0  0  0  0  0  0  0  0  0
   39.8963   31.0479   34.7397 C   0  0  0  0  0  0  0  0  0  0  0  0
   36.7108   32.2903   34.7646 C   0  0  0  0  0  0  0  0  0  0  0  0
   35.4306   31.4622   34.9259 C   0  0  0  0  0  0  0  0  0  0  0  0
  1  2  1  0
  2  3  2  0
  2  4  1  0
  4  5  2  0
  5  6  1  0
  6  7  2  0
  7  8  1  0
  8  9  2  0
  9 10  1  0
 10 11  2  0
 11 12  1  0
 12 13  2  0
 13 14  1  0
  9 15  1  0
 15 16  2  0
 15 17  2  0
 15 18  1  0
 19 18  1  1
 19 20  1  0
 20 21  1  0
 21 22  1  0
 22 23  1  6
 23 24  1  0
 24 25  1  0
 25 26  1  0
 26 27  1  0
 26 28  1  0
 22 29  1  0
 29 30  1  0
 13  4  1  0
 30 19  1  0
 12  7  1  0
 26 23  1  0
M  END
>  <AAScore>  (1) 
-5.73064045369696

>  <RootName>  (1) 
./4ZLY/04_DeltaGEst/trajectory_05/rank_01/lead_0458

$$$$
