confid_8
     RDKit          3D

 28 31  0  0  0  0  0  0  0  0999 V2000
   25.3300   26.2600   34.7600 N   0  0  0  0  0  0  0  0  0  0  0  0
   26.1200   25.9200   33.6900 C   0  0  0  0  0  0  0  0  0  0  0  0
   25.6300   25.1100   32.9400 O   0  0  0  0  0  0  0  0  0  0  0  0
   27.5200   26.3800   33.4600 C   0  0  0  0  0  0  0  0  0  0  0  0
   28.1600   26.6300   34.6100 N   0  0  0  0  0  0  0  0  0  0  0  0
   29.4800   26.8500   34.5700 N   0  0  0  0  0  0  0  0  0  0  0  0
   30.1900   26.7800   33.4400 C   0  0  0  0  0  0  0  0  0  0  0  0
   31.5600   27.0500   33.5000 C   0  0  0  0  0  0  0  0  0  0  0  0
   32.2700   27.2400   32.3100 C   0  0  0  0  0  0  0  0  0  0  0  0
   31.6100   27.2500   31.0800 C   0  0  0  0  0  0  0  0  0  0  0  0
   30.2700   26.8700   31.0600 C   0  0  0  0  0  0  0  0  0  0  0  0
   29.5100   26.6900   32.2300 C   0  0  0  0  0  0  0  0  0  0  0  0
   28.1400   26.4100   32.2000 C   0  0  0  0  0  0  0  0  0  0  0  0
   27.4300   26.1300   31.0500 N   0  0  0  0  0  0  0  0  0  0  0  0
   23.8914   26.2107   34.7792 C   0  0  0  0  0  0  0  0  0  0  0  0
   23.2563   26.0073   35.9625 N   0  0  0  0  0  0  0  0  0  0  0  0
   21.9030   25.9619   36.0612 C   0  0  0  0  0  0  0  0  0  0  0  0
   21.0957   26.1363   34.9251 C   0  0  0  0  0  0  0  0  0  0  0  0
   19.5836   26.0707   35.0794 C   0  0  0  0  0  0  0  0  0  0  0  0
   18.8756   25.0504   34.1605 C   0  0  0  0  0  0  0  0  0  0  0  0
   19.7559   23.9355   33.7873 N   0  0  0  0  0  0  0  0  0  0  0  0
   20.5937   23.9901   32.6091 C   0  0  0  0  0  0  0  0  0  0  0  0
   21.2996   22.9894   32.3057 O   0  0  0  0  0  0  0  0  0  0  0  0
   20.6554   25.2033   31.7019 C   0  0  0  0  0  0  0  0  0  0  0  0
   20.9390   26.5494   32.4068 C   0  0  0  0  0  0  0  0  0  0  0  0
   21.7293   26.3966   33.6850 C   0  0  0  0  0  0  0  0  0  0  0  0
   23.1303   26.4236   33.6199 C   0  0  0  0  0  0  0  0  0  0  0  0
   19.8655   22.7828   34.6862 C   0  0  0  0  0  0  0  0  0  0  0  0
  1  2  1  0
  2  3  2  0
  2  4  1  0
  4  5  2  0
  5  6  1  0
  6  7  2  0
  7  8  1  0
  8  9  2  0
  9 10  1  0
 10 11  2  0
 11 12  1  0
 12 13  2  0
 13 14  1  0
  1 15  1  0
 15 16  2  0
 16 17  1  0
 17 18  2  0
 18 19  1  0
 19 20  1  0
 20 21  1  0
 21 22  1  0
 22 23  2  0
 22 24  1  0
 24 25  1  0
 25 26  1  0
 26 27  2  0
 21 28  1  0
 13  4  1  0
 27 15  1  0
 12  7  1  0
 26 18  1  0
M  END
>  <AAScore>  (1) 
7943.311436255131

>  <RootName>  (1) 
./4ZLY/04_DeltaGEst/trajectory_03/rank_00/lead_0073

$$$$
