confid_14
     RDKit          3D

 30 34  0  0  0  0  0  0  0  0999 V2000
   25.3300   26.2600   34.7600 N   0  0  0  0  0  0  0  0  0  0  0  0
   26.1200   25.9200   33.6900 C   0  0  0  0  0  0  0  0  0  0  0  0
   25.6300   25.1100   32.9400 O   0  0  0  0  0  0  0  0  0  0  0  0
   27.5200   26.3800   33.4600 C   0  0  0  0  0  0  0  0  0  0  0  0
   28.1600   26.6300   34.6100 N   0  0  0  0  0  0  0  0  0  0  0  0
   29.4800   26.8500   34.5700 N   0  0  0  0  0  0  0  0  0  0  0  0
   30.1900   26.7800   33.4400 C   0  0  0  0  0  0  0  0  0  0  0  0
   31.5600   27.0500   33.5000 C   0  0  0  0  0  0  0  0  0  0  0  0
   32.2700   27.2400   32.3100 C   0  0  0  0  0  0  0  0  0  0  0  0
   31.6100   27.2500   31.0800 C   0  0  0  0  0  0  0  0  0  0  0  0
   30.2700   26.8700   31.0600 C   0  0  0  0  0  0  0  0  0  0  0  0
   29.5100   26.6900   32.2300 C   0  0  0  0  0  0  0  0  0  0  0  0
   28.1400   26.4100   32.2000 C   0  0  0  0  0  0  0  0  0  0  0  0
   27.4300   26.1300   31.0500 N   0  0  0  0  0  0  0  0  0  0  0  0
   27.6096   24.8376   30.3753 C   0  0  0  0  0  0  0  0  0  0  0  0
   27.0898   24.9043   28.9382 C   0  0  0  0  0  0  0  0  0  0  0  0
   27.4343   26.2204   28.3680 N   0  0  0  0  0  0  0  0  0  0  0  0
   27.2504   26.2386   26.9044 C   0  0  0  0  0  0  0  0  0  0  0  0
   28.3914   25.5304   26.2298 C   0  0  0  0  0  0  0  0  0  0  0  0
   29.6565   26.0023   26.2725 N   0  0  0  0  0  0  0  0  0  0  0  0
   30.3632   25.0982   25.5669 C   0  0  0  0  0  0  0  0  0  0  0  0
   32.0864   25.2094   25.2796 Cl  0  0  0  0  0  0  0  0  0  0  0  0
   29.5356   24.1008   25.1087 C   0  0  0  0  0  0  0  0  0  0  0  0
   28.2919   24.3678   25.5411 N   0  0  0  0  0  0  0  0  0  0  0  0
   27.0957   23.5822   25.2384 C   0  0  0  0  0  0  0  0  0  0  0  0
   26.3357   24.2204   24.0701 C   0  0  0  0  0  0  0  0  0  0  0  0
   25.4565   23.2697   23.2728 C   0  0  0  0  0  0  0  0  0  0  0  0
   26.7690   23.7659   22.6845 C   0  0  0  0  0  0  0  0  0  0  0  0
   26.6373   27.2963   29.0019 C   0  0  0  0  0  0  0  0  0  0  0  0
   26.4688   27.1071   30.5255 C   0  0  0  0  0  0  0  0  0  0  0  0
  1  2  1  0
  2  3  2  0
  2  4  1  0
  4  5  2  0
  5  6  1  0
  6  7  2  0
  7  8  1  0
  8  9  2  0
  9 10  1  0
 10 11  2  0
 11 12  1  0
 12 13  2  0
 13 14  1  0
 14 15  1  0
 15 16  1  0
 16 17  1  0
 17 18  1  0
 18 19  1  0
 19 20  2  0
 20 21  1  0
 21 22  1  0
 21 23  2  0
 23 24  1  0
 24 25  1  0
 25 26  1  0
 26 27  1  0
 27 28  1  0
 17 29  1  0
 29 30  1  0
 13  4  1  0
 30 14  1  0
 12  7  1  0
 24 19  1  0
 28 26  1  0
M  END
>  <AAScore>  (1) 
-2.467575218317427

>  <RootName>  (1) 
./4ZLY/04_DeltaGEst/trajectory_03/rank_01/lead_0371

$$$$
