confid_5
     RDKit          3D

 27 30  0  0  0  0  0  0  0  0999 V2000
   24.6900   26.1200   35.5300 N   0  0  0  0  0  0  0  0  0  0  0  0
   25.6600   25.6700   34.6600 C   0  0  0  0  0  0  0  0  0  0  0  0
   25.2400   25.0100   33.7200 O   0  0  0  0  0  0  0  0  0  0  0  0
   27.0300   26.2200   34.8800 C   0  0  0  0  0  0  0  0  0  0  0  0
   27.3500   26.7300   36.0700 N   0  0  0  0  0  0  0  0  0  0  0  0
   28.5700   27.1800   36.3300 N   0  0  0  0  0  0  0  0  0  0  0  0
   29.5300   27.1100   35.3900 C   0  0  0  0  0  0  0  0  0  0  0  0
   30.8300   27.5700   35.6500 C   0  0  0  0  0  0  0  0  0  0  0  0
   31.8500   27.5400   34.6900 C   0  0  0  0  0  0  0  0  0  0  0  0
   31.5100   27.1200   33.4000 C   0  0  0  0  0  0  0  0  0  0  0  0
   30.2200   26.6300   33.1100 C   0  0  0  0  0  0  0  0  0  0  0  0
   29.2400   26.6600   34.1000 C   0  0  0  0  0  0  0  0  0  0  0  0
   27.9300   26.2600   33.8100 C   0  0  0  0  0  0  0  0  0  0  0  0
   27.5200   25.7100   32.6100 N   0  0  0  0  0  0  0  0  0  0  0  0
   23.2863   26.2063   35.2302 C   0  0  0  0  0  0  0  0  0  0  0  0
   22.3802   25.9609   36.2284 N   0  0  0  0  0  0  0  0  0  0  0  0
   21.0337   26.0511   36.0314 C   0  0  0  0  0  0  0  0  0  0  0  0
   20.5774   26.4263   34.7752 C   0  0  0  0  0  0  0  0  0  0  0  0
   19.2438   26.6362   34.2781 C   0  0  0  0  0  0  0  0  0  0  0  0
   18.1808   26.4799   34.9359 O   0  0  0  0  0  0  0  0  0  0  0  0
   19.3071   27.0669   32.9180 N   0  0  0  0  0  0  0  0  0  0  0  0
   20.7182   27.1209   32.5125 C   0  0  0  0  0  0  0  0  0  0  0  0
   21.4526   26.7049   33.7537 C   0  0  0  0  0  0  0  0  0  0  0  0
   22.8283   26.6031   33.9520 C   0  0  0  0  0  0  0  0  0  0  0  0
   18.1805   27.4102   32.0451 C   0  0  0  0  0  0  0  0  0  0  0  0
   17.2682   26.1985   31.8402 C   0  0  0  0  0  0  0  0  0  0  0  0
   17.4058   28.6046   32.6084 C   0  0  0  0  0  0  0  0  0  0  0  0
  1  2  1  0
  2  3  2  0
  2  4  1  0
  4  5  2  0
  5  6  1  0
  6  7  2  0
  7  8  1  0
  8  9  2  0
  9 10  1  0
 10 11  2  0
 11 12  1  0
 12 13  2  0
 13 14  1  0
  1 15  1  0
 15 16  2  0
 16 17  1  0
 17 18  2  0
 18 19  1  0
 19 20  2  0
 19 21  1  0
 21 22  1  0
 22 23  1  0
 23 24  2  0
 21 25  1  0
 25 26  1  0
 25 27  1  0
 13  4  1  0
 24 15  1  0
 12  7  1  0
 23 18  1  0
M  END
>  <AAScore>  (1) 
342.6872551831563

>  <RootName>  (1) 
./4ZLY/04_DeltaGEst/trajectory_02/rank_00/lead_0324

$$$$
