confid_3
     RDKit          3D

 30 34  0  0  0  0  0  0  0  0999 V2000
   24.2000   26.2400   35.6900 N   0  0  0  0  0  0  0  0  0  0  0  0
   24.8500   26.2800   34.4800 C   0  0  0  0  0  0  0  0  0  0  0  0
   24.3100   25.7400   33.5400 O   0  0  0  0  0  0  0  0  0  0  0  0
   26.1800   26.9700   34.4700 C   0  0  0  0  0  0  0  0  0  0  0  0
   26.6500   27.6000   35.5500 N   0  0  0  0  0  0  0  0  0  0  0  0
   27.7900   28.2700   35.6200 N   0  0  0  0  0  0  0  0  0  0  0  0
   28.5400   28.3000   34.5100 C   0  0  0  0  0  0  0  0  0  0  0  0
   29.7700   28.9400   34.5600 C   0  0  0  0  0  0  0  0  0  0  0  0
   30.7000   28.8900   33.5000 C   0  0  0  0  0  0  0  0  0  0  0  0
   30.3700   28.1400   32.3700 C   0  0  0  0  0  0  0  0  0  0  0  0
   29.1200   27.5200   32.2800 C   0  0  0  0  0  0  0  0  0  0  0  0
   28.2100   27.6100   33.3300 C   0  0  0  0  0  0  0  0  0  0  0  0
   26.9700   26.9700   33.3100 C   0  0  0  0  0  0  0  0  0  0  0  0
   26.5300   26.2400   32.2200 N   0  0  0  0  0  0  0  0  0  0  0  0
   30.1455   29.6572   35.7484 N   0  0  0  0  0  0  0  0  0  0  0  0
   30.5411   29.0031   36.9982 C   0  0  0  0  0  0  0  0  0  0  0  0
   31.2543   30.0869   37.8426 C   0  0  0  0  0  0  0  0  0  0  0  0
   31.2371   31.2807   36.9538 C   0  0  0  0  0  0  0  0  0  0  0  0
   31.7696   32.5407   37.2000 C   0  0  0  0  0  0  0  0  0  0  0  0
   31.6437   33.5316   36.2145 C   0  0  0  0  0  0  0  0  0  0  0  0
   30.9766   33.2685   34.9811 C   0  0  0  0  0  0  0  0  0  0  0  0
   30.4547   31.9612   34.7794 C   0  0  0  0  0  0  0  0  0  0  0  0
   30.6080   30.9978   35.7796 C   0  0  0  0  0  0  0  0  0  0  0  0
   30.8434   34.3026   33.9551 N   0  0  0  0  0  0  0  0  0  0  0  0
   30.2320   33.9445   32.6548 C   0  0  0  0  0  0  0  0  0  0  0  0
   30.0626   35.1170   31.6862 C   0  0  0  0  0  0  0  0  0  0  0  0
   31.2131   36.0234   31.7682 N   0  0  0  0  0  0  0  0  0  0  0  0
   31.1986   36.6565   33.0914 C   0  0  0  0  0  0  0  0  0  0  0  0
   31.4762   35.6215   34.1831 C   0  0  0  0  0  0  0  0  0  0  0  0
   31.1153   37.0519   30.7202 C   0  0  0  0  0  0  0  0  0  0  0  0
  1  2  1  0
  2  3  2  0
  2  4  1  0
  4  5  2  0
  5  6  1  0
  6  7  2  0
  7  8  1  0
  8  9  2  0
  9 10  1  0
 10 11  2  0
 11 12  1  0
 12 13  2  0
 13 14  1  0
  8 15  1  0
 15 16  1  0
 16 17  1  0
 17 18  1  0
 18 19  2  0
 19 20  1  0
 20 21  2  0
 21 22  1  0
 22 23  2  0
 21 24  1  0
 24 25  1  0
 25 26  1  0
 26 27  1  0
 27 28  1  0
 28 29  1  0
 27 30  1  0
 13  4  1  0
 23 15  1  0
 29 24  1  0
 12  7  1  0
 23 18  1  0
M  END
>  <AAScore>  (1) 
44.49301696215637

>  <RootName>  (1) 
./4ZLY/04_DeltaGEst/trajectory_04/rank_01/lead_0194

$$$$
