confid_5
     RDKit          3D

 27 30  0  0  0  0  0  0  0  0999 V2000
   24.4800   26.1000   36.1300 N   0  0  0  0  0  0  0  0  0  0  0  0
   25.2500   26.2500   34.9900 C   0  0  0  0  0  0  0  0  0  0  0  0
   24.7400   25.7600   33.9900 O   0  0  0  0  0  0  0  0  0  0  0  0
   26.5900   26.8900   34.9600 C   0  0  0  0  0  0  0  0  0  0  0  0
   27.0600   27.2400   36.1600 N   0  0  0  0  0  0  0  0  0  0  0  0
   28.3000   27.7100   36.2400 N   0  0  0  0  0  0  0  0  0  0  0  0
   29.0500   27.9600   35.1500 C   0  0  0  0  0  0  0  0  0  0  0  0
   30.3400   28.4900   35.2600 C   0  0  0  0  0  0  0  0  0  0  0  0
   31.1100   28.8200   34.1400 C   0  0  0  0  0  0  0  0  0  0  0  0
   30.5200   28.6700   32.8800 C   0  0  0  0  0  0  0  0  0  0  0  0
   29.2900   28.0200   32.7700 C   0  0  0  0  0  0  0  0  0  0  0  0
   28.5200   27.7100   33.8900 C   0  0  0  0  0  0  0  0  0  0  0  0
   27.2700   27.0800   33.7600 C   0  0  0  0  0  0  0  0  0  0  0  0
   26.7500   26.8800   32.4900 N   0  0  0  0  0  0  0  0  0  0  0  0
   23.0517   25.9253   36.1473 C   0  0  0  0  0  0  0  0  0  0  0  0
   22.3023   26.1165   35.1101 N   0  0  0  0  0  0  0  0  0  0  0  0
   20.9603   25.9279   35.5297 C   0  0  0  0  0  0  0  0  0  0  0  0
   20.8950   25.6212   36.8166 C   0  0  0  0  0  0  0  0  0  0  0  0
   19.6189   25.4849   37.5976 C   0  0  0  0  0  0  0  0  0  0  0  0
   19.6379   24.3437   38.5360 N   0  0  0  0  0  0  0  0  0  0  0  0
   20.6395   24.4607   39.6201 C   0  0  0  0  0  0  0  0  0  0  0  0
   22.0478   23.8989   39.3061 C   0  0  0  0  0  0  0  0  0  0  0  0
   22.6245   24.1977   37.9113 C   0  0  0  0  0  0  0  0  0  0  0  0
   22.2752   25.5966   37.3875 C   0  0  1  0  0  0  0  0  0  0  0  0
   19.5181   23.0152   37.9002 C   0  0  0  0  0  0  0  0  0  0  0  0
   18.0431   22.6286   37.7756 C   0  0  0  0  0  0  0  0  0  0  0  0
   17.9156   21.3969   37.1188 O   0  0  0  0  0  0  0  0  0  0  0  0
  1  2  1  0
  2  3  2  0
  2  4  1  0
  4  5  2  0
  5  6  1  0
  6  7  2  0
  7  8  1  0
  8  9  2  0
  9 10  1  0
 10 11  2  0
 11 12  1  0
 12 13  2  0
 13 14  1  0
  1 15  1  0
 15 16  2  0
 16 17  1  0
 17 18  2  0
 18 19  1  0
 19 20  1  0
 20 21  1  0
 21 22  1  0
 22 23  1  0
 24 23  1  6
 20 25  1  0
 25 26  1  0
 26 27  1  0
 13  4  1  0
 24 15  1  0
 12  7  1  0
 24 18  1  0
M  END
>  <AAScore>  (1) 
1741.6832125006272

>  <RootName>  (1) 
./4ZLY/04_DeltaGEst/trajectory_00/rank_01/lead_0044

$$$$
