confid_16
     RDKit          3D

 29 32  0  0  0  0  0  0  0  0999 V2000
   24.2000   26.2400   35.6900 N   0  0  0  0  0  0  0  0  0  0  0  0
   24.8500   26.2800   34.4800 C   0  0  0  0  0  0  0  0  0  0  0  0
   24.3100   25.7400   33.5400 O   0  0  0  0  0  0  0  0  0  0  0  0
   26.1800   26.9700   34.4700 C   0  0  0  0  0  0  0  0  0  0  0  0
   26.6500   27.6000   35.5500 N   0  0  0  0  0  0  0  0  0  0  0  0
   27.7900   28.2700   35.6200 N   0  0  0  0  0  0  0  0  0  0  0  0
   28.5400   28.3000   34.5100 C   0  0  0  0  0  0  0  0  0  0  0  0
   29.7700   28.9400   34.5600 C   0  0  0  0  0  0  0  0  0  0  0  0
   30.7000   28.8900   33.5000 C   0  0  0  0  0  0  0  0  0  0  0  0
   30.3700   28.1400   32.3700 C   0  0  0  0  0  0  0  0  0  0  0  0
   29.1200   27.5200   32.2800 C   0  0  0  0  0  0  0  0  0  0  0  0
   28.2100   27.6100   33.3300 C   0  0  0  0  0  0  0  0  0  0  0  0
   26.9700   26.9700   33.3100 C   0  0  0  0  0  0  0  0  0  0  0  0
   26.5300   26.2400   32.2200 N   0  0  0  0  0  0  0  0  0  0  0  0
   23.1799   25.2815   36.0386 C   0  0  0  0  0  0  0  0  0  0  0  0
   23.0949   24.1673   35.3643 N   0  0  0  0  0  0  0  0  0  0  0  0
   22.2326   23.0267   35.5247 C   0  0  0  0  0  0  0  0  0  0  0  0
   20.8852   23.0394   35.4561 C   0  0  0  0  0  0  0  0  0  0  0  0
   20.1203   21.7476   35.3288 C   0  0  0  0  0  0  0  0  0  0  0  0
   18.7334   22.1543   35.2039 N   0  0  0  0  0  0  0  0  0  0  0  0
   18.6325   23.5638   35.3028 C   0  0  0  0  0  0  0  0  0  0  0  0
   17.5317   24.1763   35.2624 O   0  0  0  0  0  0  0  0  0  0  0  0
   19.9472   24.2266   35.5188 C   0  0  2  0  0  0  0  0  0  0  0  0
   20.2130   25.3243   34.4668 C   0  0  0  0  0  0  0  0  0  0  0  0
   19.9157   26.7227   35.0359 C   0  0  0  0  0  0  0  0  0  0  0  0
   21.1142   27.3771   35.7490 C   0  0  0  0  0  0  0  0  0  0  0  0
   21.4507   26.8232   37.1601 C   0  0  0  0  0  0  0  0  0  0  0  0
   22.3481   25.5568   37.2634 C   0  0  0  0  0  0  0  0  0  0  0  0
   17.6062   21.2430   35.0504 C   0  0  0  0  0  0  0  0  0  0  0  0
  1  2  1  0
  2  3  2  0
  2  4  1  0
  4  5  2  0
  5  6  1  0
  6  7  2  0
  7  8  1  0
  8  9  2  0
  9 10  1  0
 10 11  2  0
 11 12  1  0
 12 13  2  0
 13 14  1  0
  1 15  1  0
 15 16  2  0
 16 17  1  0
 17 18  2  0
 18 19  1  0
 19 20  1  0
 20 21  1  0
 21 22  2  0
 21 23  1  0
 23 24  1  6
 24 25  1  0
 25 26  1  0
 26 27  1  0
 27 28  1  0
 20 29  1  0
 13  4  1  0
 28 15  1  0
 12  7  1  0
 23 18  1  0
M  END
>  <AAScore>  (1) 
7005.447437933771

>  <RootName>  (1) 
./4ZLY/04_DeltaGEst/trajectory_04/rank_00/lead_0314

$$$$
