confid_1
     RDKit          3D

 27 30  0  0  0  0  0  0  0  0999 V2000
   24.2000   26.2400   35.6900 N   0  0  0  0  0  0  0  0  0  0  0  0
   24.8500   26.2800   34.4800 C   0  0  0  0  0  0  0  0  0  0  0  0
   24.3100   25.7400   33.5400 O   0  0  0  0  0  0  0  0  0  0  0  0
   26.1800   26.9700   34.4700 C   0  0  0  0  0  0  0  0  0  0  0  0
   26.6500   27.6000   35.5500 N   0  0  0  0  0  0  0  0  0  0  0  0
   27.7900   28.2700   35.6200 N   0  0  0  0  0  0  0  0  0  0  0  0
   28.5400   28.3000   34.5100 C   0  0  0  0  0  0  0  0  0  0  0  0
   29.7700   28.9400   34.5600 C   0  0  0  0  0  0  0  0  0  0  0  0
   30.7000   28.8900   33.5000 C   0  0  0  0  0  0  0  0  0  0  0  0
   30.3700   28.1400   32.3700 C   0  0  0  0  0  0  0  0  0  0  0  0
   29.1200   27.5200   32.2800 C   0  0  0  0  0  0  0  0  0  0  0  0
   28.2100   27.6100   33.3300 C   0  0  0  0  0  0  0  0  0  0  0  0
   26.9700   26.9700   33.3100 C   0  0  0  0  0  0  0  0  0  0  0  0
   26.5300   26.2400   32.2200 N   0  0  0  0  0  0  0  0  0  0  0  0
   23.2247   25.2344   36.0368 C   0  0  0  0  0  0  0  0  0  0  0  0
   23.2613   24.0242   35.4127 N   0  0  0  0  0  0  0  0  0  0  0  0
   22.3951   23.0235   35.7065 C   0  0  0  0  0  0  0  0  0  0  0  0
   21.4307   23.1989   36.7009 C   0  0  0  0  0  0  0  0  0  0  0  0
   21.3960   24.4080   37.4133 C   0  0  0  0  0  0  0  0  0  0  0  0
   22.2554   25.4703   37.0417 C   0  0  0  0  0  0  0  0  0  0  0  0
   22.1160   26.8397   37.6617 C   0  0  0  0  0  0  0  0  0  0  0  0
   20.4407   24.5318   38.4816 N   0  0  0  0  0  0  0  0  0  0  0  0
   20.8880   24.8063   39.8494 C   0  0  0  0  0  0  0  0  0  0  0  0
   19.1106   23.9537   38.2745 C   0  0  0  0  0  0  0  0  0  0  0  0
   19.2286   22.5522   37.7325 C   0  0  0  0  0  0  0  0  0  0  0  0
   18.2799   21.7902   37.8371 O   0  0  0  0  0  0  0  0  0  0  0  0
   20.4899   22.0711   37.0529 C   0  0  0  0  0  0  0  0  0  0  0  0
  1  2  1  0
  2  3  2  0
  2  4  1  0
  4  5  2  0
  5  6  1  0
  6  7  2  0
  7  8  1  0
  8  9  2  0
  9 10  1  0
 10 11  2  0
 11 12  1  0
 12 13  2  0
 13 14  1  0
  1 15  1  0
 15 16  2  0
 16 17  1  0
 17 18  2  0
 18 19  1  0
 19 20  2  0
 20 21  1  0
 19 22  1  0
 22 23  1  0
 22 24  1  0
 24 25  1  0
 25 26  2  0
 25 27  1  0
 13  4  1  0
 20 15  1  0
 12  7  1  0
 27 18  1  0
M  END
>  <AAScore>  (1) 
1332.6227586976845

>  <RootName>  (1) 
./4ZLY/04_DeltaGEst/trajectory_04/rank_00/lead_0188

$$$$
