confid_3
     RDKit          3D

 28 31  0  0  0  0  0  0  0  0999 V2000
   24.5500   26.3900   36.2500 N   0  0  0  0  0  0  0  0  0  0  0  0
   25.6000   26.1300   35.4000 C   0  0  0  0  0  0  0  0  0  0  0  0
   25.4300   25.4300   34.4200 O   0  0  0  0  0  0  0  0  0  0  0  0
   26.9800   26.6300   35.7100 C   0  0  0  0  0  0  0  0  0  0  0  0
   27.3200   26.8200   36.9800 N   0  0  0  0  0  0  0  0  0  0  0  0
   28.4700   27.4000   37.3100 N   0  0  0  0  0  0  0  0  0  0  0  0
   29.4000   27.6300   36.3700 C   0  0  0  0  0  0  0  0  0  0  0  0
   30.6600   28.0500   36.8000 C   0  0  0  0  0  0  0  0  0  0  0  0
   31.5700   28.3600   35.7800 C   0  0  0  0  0  0  0  0  0  0  0  0
   31.3700   28.1000   34.4300 C   0  0  0  0  0  0  0  0  0  0  0  0
   30.1200   27.5900   34.0500 C   0  0  0  0  0  0  0  0  0  0  0  0
   29.1500   27.3400   35.0300 C   0  0  0  0  0  0  0  0  0  0  0  0
   27.8800   26.8900   34.6600 C   0  0  0  0  0  0  0  0  0  0  0  0
   27.4800   26.6100   33.3700 N   0  0  0  0  0  0  0  0  0  0  0  0
   30.9732   28.3100   38.1812 N   0  0  0  0  0  0  0  0  0  0  0  0
   32.0479   27.5111   38.7931 C   0  0  0  0  0  0  0  0  0  0  0  0
   32.4239   27.9308   40.2222 C   0  0  0  0  0  0  0  0  0  0  0  0
   31.2995   27.6809   41.2365 C   0  0  0  0  0  0  0  0  0  0  0  0
   30.3649   28.8271   41.2891 N   0  0  0  0  0  0  0  0  0  0  0  0
   29.6185   28.8713   42.5788 C   0  0  0  0  0  0  0  0  0  0  0  0
   28.9695   30.2598   42.8287 C   0  0  0  0  0  0  0  0  0  0  0  0
   27.4299   30.2058   42.8423 C   0  0  0  0  0  0  0  0  0  0  0  0
   26.8884   29.2067   43.7977 N   0  0  0  0  0  0  0  0  0  0  0  0
   26.5782   29.8170   45.1000 C   0  0  0  0  0  0  0  0  0  0  0  0
   27.7224   27.9917   43.9717 C   0  0  0  0  0  0  0  0  0  0  0  0
   28.6071   27.7126   42.7529 C   0  0  0  0  0  0  0  0  0  0  0  0
   29.4984   28.8741   40.0908 C   0  0  0  0  0  0  0  0  0  0  0  0
   30.2757   29.4000   38.8787 C   0  0  0  0  0  0  0  0  0  0  0  0
  1  2  1  0
  2  3  2  0
  2  4  1  0
  4  5  2  0
  5  6  1  0
  6  7  2  0
  7  8  1  0
  8  9  2  0
  9 10  1  0
 10 11  2  0
 11 12  1  0
 12 13  2  0
 13 14  1  0
  8 15  1  0
 15 16  1  0
 16 17  1  0
 17 18  1  0
 18 19  1  0
 19 20  1  0
 20 21  1  0
 21 22  1  0
 22 23  1  0
 23 24  1  0
 23 25  1  0
 25 26  1  0
 19 27  1  0
 27 28  1  0
 13  4  1  0
 28 15  1  0
 12  7  1  0
 26 20  1  0
M  END
>  <AAScore>  (1) 
653.2763592801575

>  <RootName>  (1) 
./4ZLY/04_DeltaGEst/trajectory_01/rank_01/lead_0391

$$$$
