confid_8
     RDKit          3D

 27 30  0  0  0  0  0  0  0  0999 V2000
   25.3300   26.2600   34.7600 N   0  0  0  0  0  0  0  0  0  0  0  0
   26.1200   25.9200   33.6900 C   0  0  0  0  0  0  0  0  0  0  0  0
   25.6300   25.1100   32.9400 O   0  0  0  0  0  0  0  0  0  0  0  0
   27.5200   26.3800   33.4600 C   0  0  0  0  0  0  0  0  0  0  0  0
   28.1600   26.6300   34.6100 N   0  0  0  0  0  0  0  0  0  0  0  0
   29.4800   26.8500   34.5700 N   0  0  0  0  0  0  0  0  0  0  0  0
   30.1900   26.7800   33.4400 C   0  0  0  0  0  0  0  0  0  0  0  0
   31.5600   27.0500   33.5000 C   0  0  0  0  0  0  0  0  0  0  0  0
   32.2700   27.2400   32.3100 C   0  0  0  0  0  0  0  0  0  0  0  0
   31.6100   27.2500   31.0800 C   0  0  0  0  0  0  0  0  0  0  0  0
   30.2700   26.8700   31.0600 C   0  0  0  0  0  0  0  0  0  0  0  0
   29.5100   26.6900   32.2300 C   0  0  0  0  0  0  0  0  0  0  0  0
   28.1400   26.4100   32.2000 C   0  0  0  0  0  0  0  0  0  0  0  0
   27.4300   26.1300   31.0500 N   0  0  0  0  0  0  0  0  0  0  0  0
   23.9360   25.9318   34.9159 C   0  0  0  0  0  0  0  0  0  0  0  0
   23.4579   25.6651   36.1673 N   0  0  0  0  0  0  0  0  0  0  0  0
   22.1501   25.3540   36.3498 C   0  0  0  0  0  0  0  0  0  0  0  0
   21.4900   25.0274   37.6401 C   0  0  0  0  0  0  0  0  0  0  0  0
   20.0257   24.7468   37.2206 C   0  0  0  0  0  0  0  0  0  0  0  0
   19.9746   24.9387   35.7692 N   0  0  0  0  0  0  0  0  0  0  0  0
   21.2686   25.3047   35.3107 C   0  0  0  0  0  0  0  0  0  0  0  0
   21.6911   25.6017   34.0074 C   0  0  0  0  0  0  0  0  0  0  0  0
   23.0458   25.9248   33.8133 C   0  0  0  0  0  0  0  0  0  0  0  0
   20.7770   25.6273   32.9049 N   0  0  0  0  0  0  0  0  0  0  0  0
   20.1825   26.9097   32.5304 C   0  0  0  0  0  0  0  0  0  0  0  0
   20.8739   24.5803   31.8907 C   0  0  0  0  0  0  0  0  0  0  0  0
   18.8005   24.6604   34.9476 C   0  0  0  0  0  0  0  0  0  0  0  0
  1  2  1  0
  2  3  2  0
  2  4  1  0
  4  5  2  0
  5  6  1  0
  6  7  2  0
  7  8  1  0
  8  9  2  0
  9 10  1  0
 10 11  2  0
 11 12  1  0
 12 13  2  0
 13 14  1  0
  1 15  1  0
 15 16  2  0
 16 17  1  0
 17 18  1  0
 18 19  1  0
 19 20  1  0
 20 21  1  0
 21 22  1  0
 22 23  2  0
 22 24  1  0
 24 25  1  0
 24 26  1  0
 20 27  1  0
 13  4  1  0
 23 15  1  0
 12  7  1  0
 21 17  2  0
M  END
>  <AAScore>  (1) 
22811.12223332676

>  <RootName>  (1) 
./4ZLY/04_DeltaGEst/trajectory_03/rank_00/lead_0385

$$$$
