confid_0
     RDKit          3D

 27 30  0  0  0  0  0  0  0  0999 V2000
   24.5500   26.3900   36.2500 N   0  0  0  0  0  0  0  0  0  0  0  0
   25.6000   26.1300   35.4000 C   0  0  0  0  0  0  0  0  0  0  0  0
   25.4300   25.4300   34.4200 O   0  0  0  0  0  0  0  0  0  0  0  0
   26.9800   26.6300   35.7100 C   0  0  0  0  0  0  0  0  0  0  0  0
   27.3200   26.8200   36.9800 N   0  0  0  0  0  0  0  0  0  0  0  0
   28.4700   27.4000   37.3100 N   0  0  0  0  0  0  0  0  0  0  0  0
   29.4000   27.6300   36.3700 C   0  0  0  0  0  0  0  0  0  0  0  0
   30.6600   28.0500   36.8000 C   0  0  0  0  0  0  0  0  0  0  0  0
   31.5700   28.3600   35.7800 C   0  0  0  0  0  0  0  0  0  0  0  0
   31.3700   28.1000   34.4300 C   0  0  0  0  0  0  0  0  0  0  0  0
   30.1200   27.5900   34.0500 C   0  0  0  0  0  0  0  0  0  0  0  0
   29.1500   27.3400   35.0300 C   0  0  0  0  0  0  0  0  0  0  0  0
   27.8800   26.8900   34.6600 C   0  0  0  0  0  0  0  0  0  0  0  0
   27.4800   26.6100   33.3700 N   0  0  0  0  0  0  0  0  0  0  0  0
   31.0176   28.2786   38.2239 C   0  0  0  0  0  0  0  0  0  0  0  0
   31.8565   29.2726   38.7062 C   0  0  0  0  0  0  0  0  0  0  0  0
   31.9257   29.0773   40.0679 C   0  0  0  0  0  0  0  0  0  0  0  0
   32.6743   29.8660   40.9438 O   0  0  0  0  0  0  0  0  0  0  0  0
   33.1081   29.4027   42.2218 C   0  0  0  0  0  0  0  0  0  0  0  0
   32.0098   29.3532   43.2178 N   0  0  0  0  0  0  0  0  0  0  0  0
   30.7291   28.7637   42.7499 C   0  0  0  0  0  0  0  0  0  0  0  0
   30.9180   27.5647   41.8057 C   0  0  0  0  0  0  0  0  0  0  0  0
   31.1670   28.0280   40.4411 N   0  0  0  0  0  0  0  0  0  0  0  0
   30.6176   27.5245   39.3189 C   0  0  0  0  0  0  0  0  0  0  0  0
   31.8692   30.6154   43.9956 C   0  0  0  0  0  0  0  0  0  0  0  0
   31.3349   31.7964   43.1638 C   0  0  0  0  0  0  0  0  0  0  0  0
   31.0170   30.4090   45.2558 C   0  0  0  0  0  0  0  0  0  0  0  0
  1  2  1  0
  2  3  2  0
  2  4  1  0
  4  5  2  0
  5  6  1  0
  6  7  2  0
  7  8  1  0
  8  9  2  0
  9 10  1  0
 10 11  2  0
 11 12  1  0
 12 13  2  0
 13 14  1  0
  8 15  1  0
 15 16  1  0
 16 17  2  0
 17 18  1  0
 18 19  1  0
 19 20  1  0
 20 21  1  0
 21 22  1  0
 22 23  1  0
 23 24  1  0
 20 25  1  0
 25 26  1  0
 25 27  1  0
 13  4  1  0
 24 15  2  0
 12  7  1  0
 23 17  1  0
M  END
>  <AAScore>  (1) 
5292.365641832007

>  <RootName>  (1) 
./4ZLY/04_DeltaGEst/trajectory_01/rank_01/lead_0031

$$$$
