confid_3
     RDKit          3D

 28 32  0  0  0  0  0  0  0  0999 V2000
   24.2000   26.2400   35.6900 N   0  0  0  0  0  0  0  0  0  0  0  0
   24.8500   26.2800   34.4800 C   0  0  0  0  0  0  0  0  0  0  0  0
   24.3100   25.7400   33.5400 O   0  0  0  0  0  0  0  0  0  0  0  0
   26.1800   26.9700   34.4700 C   0  0  0  0  0  0  0  0  0  0  0  0
   26.6500   27.6000   35.5500 N   0  0  0  0  0  0  0  0  0  0  0  0
   27.7900   28.2700   35.6200 N   0  0  0  0  0  0  0  0  0  0  0  0
   28.5400   28.3000   34.5100 C   0  0  0  0  0  0  0  0  0  0  0  0
   29.7700   28.9400   34.5600 C   0  0  0  0  0  0  0  0  0  0  0  0
   30.7000   28.8900   33.5000 C   0  0  0  0  0  0  0  0  0  0  0  0
   30.3700   28.1400   32.3700 C   0  0  0  0  0  0  0  0  0  0  0  0
   29.1200   27.5200   32.2800 C   0  0  0  0  0  0  0  0  0  0  0  0
   28.2100   27.6100   33.3300 C   0  0  0  0  0  0  0  0  0  0  0  0
   26.9700   26.9700   33.3100 C   0  0  0  0  0  0  0  0  0  0  0  0
   26.5300   26.2400   32.2200 N   0  0  0  0  0  0  0  0  0  0  0  0
   22.7966   25.9585   35.8488 C   0  0  0  0  0  0  0  0  0  0  0  0
   21.9899   26.3039   34.8779 N   0  0  0  0  0  0  0  0  0  0  0  0
   20.5767   26.2494   34.6231 C   0  0  0  0  0  0  0  0  0  0  0  0
   19.6515   26.2562   35.5735 C   0  0  0  0  0  0  0  0  0  0  0  0
   18.2804   26.8434   35.7529 C   0  0  0  0  0  0  0  0  0  0  0  0
   18.2519   26.6634   37.1332 O   0  0  0  0  0  0  0  0  0  0  0  0
   19.4716   26.0037   37.0296 C   0  0  2  0  0  0  0  0  0  0  0  0
   20.6023   26.6207   37.8509 C   0  0  0  0  0  0  0  0  0  0  0  0
   21.6176   25.5313   38.0344 C   0  0  0  0  0  0  0  0  0  0  0  0
   22.4486   25.1302   37.0361 C   0  0  0  0  0  0  0  0  0  0  0  0
   23.2347   23.9689   37.1618 O   0  0  0  0  0  0  0  0  0  0  0  0
   23.2297   23.0799   38.2742 C   0  0  0  0  0  0  0  0  0  0  0  0
   23.0804   23.8618   39.5625 C   0  0  0  0  0  0  0  0  0  0  0  0
   21.4106   24.5675   39.5565 S   0  0  0  0  0  0  0  0  0  0  0  0
  1  2  1  0
  2  3  2  0
  2  4  1  0
  4  5  2  0
  5  6  1  0
  6  7  2  0
  7  8  1  0
  8  9  2  0
  9 10  1  0
 10 11  2  0
 11 12  1  0
 12 13  2  0
 13 14  1  0
  1 15  1  0
 15 16  2  0
 16 17  1  0
 17 18  2  0
 18 19  1  0
 19 20  1  0
 20 21  1  0
 21 22  1  1
 22 23  1  0
 23 24  2  0
 24 25  1  0
 25 26  1  0
 26 27  1  0
 27 28  1  0
 13  4  1  0
 24 15  1  0
 12  7  1  0
 21 18  1  0
 28 23  1  0
M  END
>  <AAScore>  (1) 
9313.20894329677

>  <RootName>  (1) 
./4ZLY/04_DeltaGEst/trajectory_04/rank_00/lead_0300

$$$$
