confid_10
     RDKit          3D

 30 34  0  0  0  0  0  0  0  0999 V2000
   24.2000   26.2400   35.6900 N   0  0  0  0  0  0  0  0  0  0  0  0
   24.8500   26.2800   34.4800 C   0  0  0  0  0  0  0  0  0  0  0  0
   24.3100   25.7400   33.5400 O   0  0  0  0  0  0  0  0  0  0  0  0
   26.1800   26.9700   34.4700 C   0  0  0  0  0  0  0  0  0  0  0  0
   26.6500   27.6000   35.5500 N   0  0  0  0  0  0  0  0  0  0  0  0
   27.7900   28.2700   35.6200 N   0  0  0  0  0  0  0  0  0  0  0  0
   28.5400   28.3000   34.5100 C   0  0  0  0  0  0  0  0  0  0  0  0
   29.7700   28.9400   34.5600 C   0  0  0  0  0  0  0  0  0  0  0  0
   30.7000   28.8900   33.5000 C   0  0  0  0  0  0  0  0  0  0  0  0
   30.3700   28.1400   32.3700 C   0  0  0  0  0  0  0  0  0  0  0  0
   29.1200   27.5200   32.2800 C   0  0  0  0  0  0  0  0  0  0  0  0
   28.2100   27.6100   33.3300 C   0  0  0  0  0  0  0  0  0  0  0  0
   26.9700   26.9700   33.3100 C   0  0  0  0  0  0  0  0  0  0  0  0
   26.5300   26.2400   32.2200 N   0  0  0  0  0  0  0  0  0  0  0  0
   30.1486   29.6514   35.7509 N   0  0  0  0  0  0  0  0  0  0  0  0
   30.5369   28.9906   36.9999 C   0  0  0  0  0  0  0  0  0  0  0  0
   31.2619   30.0640   37.8482 C   0  0  0  0  0  0  0  0  0  0  0  0
   31.2619   31.2603   36.9627 C   0  0  0  0  0  0  0  0  0  0  0  0
   31.8048   32.5193   37.2197 C   0  0  0  0  0  0  0  0  0  0  0  0
   31.6876   33.5295   36.2380 C   0  0  0  0  0  0  0  0  0  0  0  0
   32.2422   34.8431   36.4711 N   0  0  0  0  0  0  0  0  0  0  0  0
   31.6132   36.0380   35.8942 C   0  0  0  0  0  0  0  0  0  0  0  0
   31.8252   37.2453   36.8195 C   0  0  0  0  0  0  0  0  0  0  0  0
   33.2455   37.4670   37.2024 N   0  0  0  0  0  0  0  0  0  0  0  0
   33.7705   38.7112   36.6200 C   0  0  0  0  0  0  0  0  0  0  0  0
   34.1529   36.3392   36.8984 C   0  0  0  0  0  0  0  0  0  0  0  0
   33.4992   34.9920   37.2159 C   0  0  0  0  0  0  0  0  0  0  0  0
   31.0234   33.2316   35.0211 C   0  0  0  0  0  0  0  0  0  0  0  0
   30.4865   31.9555   34.7917 C   0  0  0  0  0  0  0  0  0  0  0  0
   30.6281   30.9855   35.7856 C   0  0  0  0  0  0  0  0  0  0  0  0
  1  2  1  0
  2  3  2  0
  2  4  1  0
  4  5  2  0
  5  6  1  0
  6  7  2  0
  7  8  1  0
  8  9  2  0
  9 10  1  0
 10 11  2  0
 11 12  1  0
 12 13  2  0
 13 14  1  0
  8 15  1  0
 15 16  1  0
 16 17  1  0
 17 18  1  0
 18 19  2  0
 19 20  1  0
 20 21  1  0
 21 22  1  0
 22 23  1  0
 23 24  1  0
 24 25  1  0
 24 26  1  0
 26 27  1  0
 20 28  2  0
 28 29  1  0
 29 30  2  0
 13  4  1  0
 30 15  1  0
 12  7  1  0
 30 18  1  0
 27 21  1  0
M  END
>  <AAScore>  (1) 
-8.130572304878159

>  <RootName>  (1) 
./4ZLY/04_DeltaGEst/trajectory_04/rank_01/lead_0278

$$$$
