confid_7
     RDKit          3D

 27 30  0  0  0  0  0  0  0  0999 V2000
   24.5700   26.8800   35.5900 N   0  0  0  0  0  0  0  0  0  0  0  0
   25.5000   26.4000   34.6900 C   0  0  0  0  0  0  0  0  0  0  0  0
   25.1700   25.5200   33.9100 O   0  0  0  0  0  0  0  0  0  0  0  0
   26.8400   27.0200   34.7400 C   0  0  0  0  0  0  0  0  0  0  0  0
   27.3800   27.2800   35.9400 N   0  0  0  0  0  0  0  0  0  0  0  0
   28.6200   27.7400   36.0300 N   0  0  0  0  0  0  0  0  0  0  0  0
   29.3800   28.0000   34.9600 C   0  0  0  0  0  0  0  0  0  0  0  0
   30.6700   28.5000   35.1300 C   0  0  0  0  0  0  0  0  0  0  0  0
   31.5400   28.6100   34.0300 C   0  0  0  0  0  0  0  0  0  0  0  0
   31.0900   28.2200   32.7700 C   0  0  0  0  0  0  0  0  0  0  0  0
   29.8000   27.7000   32.6000 C   0  0  0  0  0  0  0  0  0  0  0  0
   28.9600   27.5500   33.7100 C   0  0  0  0  0  0  0  0  0  0  0  0
   27.6600   27.0300   33.5900 C   0  0  0  0  0  0  0  0  0  0  0  0
   27.1600   26.7400   32.3400 N   0  0  0  0  0  0  0  0  0  0  0  0
   33.1490   29.3025   34.2288 S   0  0  0  0  0  6  0  0  0  0  0  0
   33.6447   29.0227   35.6203 O   0  0  0  0  0  0  0  0  0  0  0  0
   34.0936   28.6570   33.2536 O   0  0  0  0  0  0  0  0  0  0  0  0
   33.1268   31.0807   33.9538 C   0  0  1  0  0  0  0  0  0  0  0  0
   32.6238   31.4229   32.5629 C   0  0  0  0  0  0  0  0  0  0  0  0
   31.1670   31.4968   32.6666 N   0  0  0  0  0  0  0  0  0  0  0  0
   30.8502   31.9666   34.0376 C   0  0  2  0  0  0  0  0  0  0  0  0
   30.3144   33.4208   34.1367 C   0  0  0  0  0  0  0  0  0  0  0  0
   29.9487   33.7814   35.5882 C   0  0  0  0  0  0  0  0  0  0  0  0
   28.8525   34.8250   35.7442 C   0  0  0  0  0  0  0  0  0  0  0  0
   28.5566   33.3615   36.0358 C   0  0  0  0  0  0  0  0  0  0  0  0
   32.1331   31.7776   34.8724 C   0  0  0  0  0  0  0  0  0  0  0  0
   30.5672   32.2242   31.5378 C   0  0  0  0  0  0  0  0  0  0  0  0
  1  2  1  0
  2  3  2  0
  2  4  1  0
  4  5  2  0
  5  6  1  0
  6  7  2  0
  7  8  1  0
  8  9  2  0
  9 10  1  0
 10 11  2  0
 11 12  1  0
 12 13  2  0
 13 14  1  0
  9 15  1  0
 15 16  2  0
 15 17  2  0
 18 15  1  1
 18 19  1  0
 19 20  1  0
 20 21  1  0
 21 22  1  6
 22 23  1  0
 23 24  1  0
 24 25  1  0
 21 26  1  0
 20 27  1  0
 13  4  1  0
 26 18  1  0
 12  7  1  0
 25 23  1  0
M  END
>  <AAScore>  (1) 
24.28670477183287

>  <RootName>  (1) 
./4ZLY/04_DeltaGEst/trajectory_05/rank_01/lead_0114

$$$$
