confid_1
     RDKit          3D

 28 31  0  0  0  0  0  0  0  0999 V2000
   24.2000   26.2400   35.6900 N   0  0  0  0  0  0  0  0  0  0  0  0
   24.8500   26.2800   34.4800 C   0  0  0  0  0  0  0  0  0  0  0  0
   24.3100   25.7400   33.5400 O   0  0  0  0  0  0  0  0  0  0  0  0
   26.1800   26.9700   34.4700 C   0  0  0  0  0  0  0  0  0  0  0  0
   26.6500   27.6000   35.5500 N   0  0  0  0  0  0  0  0  0  0  0  0
   27.7900   28.2700   35.6200 N   0  0  0  0  0  0  0  0  0  0  0  0
   28.5400   28.3000   34.5100 C   0  0  0  0  0  0  0  0  0  0  0  0
   29.7700   28.9400   34.5600 C   0  0  0  0  0  0  0  0  0  0  0  0
   30.7000   28.8900   33.5000 C   0  0  0  0  0  0  0  0  0  0  0  0
   30.3700   28.1400   32.3700 C   0  0  0  0  0  0  0  0  0  0  0  0
   29.1200   27.5200   32.2800 C   0  0  0  0  0  0  0  0  0  0  0  0
   28.2100   27.6100   33.3300 C   0  0  0  0  0  0  0  0  0  0  0  0
   26.9700   26.9700   33.3100 C   0  0  0  0  0  0  0  0  0  0  0  0
   26.5300   26.2400   32.2200 N   0  0  0  0  0  0  0  0  0  0  0  0
   30.1262   29.7075   35.7283 N   0  0  0  0  0  0  0  0  0  0  0  0
   31.2643   29.2717   36.5572 C   0  0  0  0  0  0  0  0  0  0  0  0
   32.3470   30.3581   36.7237 C   0  0  0  0  0  0  0  0  0  0  0  0
   32.3983   31.3171   35.5540 C   0  0  0  0  0  0  0  0  0  0  0  0
   33.4996   31.3064   34.6828 C   0  0  0  0  0  0  0  0  0  0  0  0
   33.5390   32.1397   33.5442 C   0  0  0  0  0  0  0  0  0  0  0  0
   34.6778   32.1183   32.6394 N   0  0  0  0  0  0  0  0  0  0  0  0
   34.8640   33.1837   31.6458 C   0  0  0  0  0  0  0  0  0  0  0  0
   35.6697   31.0373   32.7077 C   0  0  0  0  0  0  0  0  0  0  0  0
   32.4378   32.9870   33.3019 C   0  0  0  0  0  0  0  0  0  0  0  0
   31.3418   33.0053   34.1654 C   0  0  0  0  0  0  0  0  0  0  0  0
   31.3131   32.1820   35.2975 C   0  0  0  0  0  0  0  0  0  0  0  0
   30.1020   32.1773   36.2032 C   0  0  0  0  0  0  0  0  0  0  0  0
   29.2981   30.8664   36.1100 C   0  0  0  0  0  0  0  0  0  0  0  0
  1  2  1  0
  2  3  2  0
  2  4  1  0
  4  5  2  0
  5  6  1  0
  6  7  2  0
  7  8  1  0
  8  9  2  0
  9 10  1  0
 10 11  2  0
 11 12  1  0
 12 13  2  0
 13 14  1  0
  8 15  1  0
 15 16  1  0
 16 17  1  0
 17 18  1  0
 18 19  2  0
 19 20  1  0
 20 21  1  0
 21 22  1  0
 21 23  1  0
 20 24  2  0
 24 25  1  0
 25 26  2  0
 26 27  1  0
 27 28  1  0
 13  4  1  0
 28 15  1  0
 12  7  1  0
 26 18  1  0
M  END
>  <AAScore>  (1) 
-8.361446007831246

>  <RootName>  (1) 
./4ZLY/04_DeltaGEst/trajectory_04/rank_01/lead_0468

$$$$
