confid_18
     RDKit          3D

 27 30  0  0  0  0  0  0  0  0999 V2000
   24.5700   26.8800   35.5900 N   0  0  0  0  0  0  0  0  0  0  0  0
   25.5000   26.4000   34.6900 C   0  0  0  0  0  0  0  0  0  0  0  0
   25.1700   25.5200   33.9100 O   0  0  0  0  0  0  0  0  0  0  0  0
   26.8400   27.0200   34.7400 C   0  0  0  0  0  0  0  0  0  0  0  0
   27.3800   27.2800   35.9400 N   0  0  0  0  0  0  0  0  0  0  0  0
   28.6200   27.7400   36.0300 N   0  0  0  0  0  0  0  0  0  0  0  0
   29.3800   28.0000   34.9600 C   0  0  0  0  0  0  0  0  0  0  0  0
   30.6700   28.5000   35.1300 C   0  0  0  0  0  0  0  0  0  0  0  0
   31.5400   28.6100   34.0300 C   0  0  0  0  0  0  0  0  0  0  0  0
   31.0900   28.2200   32.7700 C   0  0  0  0  0  0  0  0  0  0  0  0
   29.8000   27.7000   32.6000 C   0  0  0  0  0  0  0  0  0  0  0  0
   28.9600   27.5500   33.7100 C   0  0  0  0  0  0  0  0  0  0  0  0
   27.6600   27.0300   33.5900 C   0  0  0  0  0  0  0  0  0  0  0  0
   27.1600   26.7400   32.3400 N   0  0  0  0  0  0  0  0  0  0  0  0
   23.3054   26.2594   35.8808 C   0  0  0  0  0  0  0  0  0  0  0  0
   22.4317   26.8851   36.7106 N   0  0  0  0  0  0  0  0  0  0  0  0
   21.2329   26.3317   37.0240 C   0  0  0  0  0  0  0  0  0  0  0  0
   20.8614   25.0903   36.4780 C   0  0  0  0  0  0  0  0  0  0  0  0
   19.5666   24.3722   36.8397 C   0  0  1  0  0  0  0  0  0  0  0  0
   19.8360   23.1662   37.7680 C   0  0  0  0  0  0  0  0  0  0  0  0
   21.1400   22.3851   37.4738 C   0  0  0  0  0  0  0  0  0  0  0  0
   21.3314   21.9950   36.0557 N   0  0  0  0  0  0  0  0  0  0  0  0
   20.3488   20.9936   35.6133 C   0  0  0  0  0  0  0  0  0  0  0  0
   21.5046   23.0813   35.0533 C   0  0  0  0  0  0  0  0  0  0  0  0
   21.7963   24.4428   35.6442 C   0  0  0  0  0  0  0  0  0  0  0  0
   22.9834   25.0431   35.3663 N   0  0  0  0  0  0  0  0  0  0  0  0
   18.4836   25.2844   37.4373 C   0  0  0  0  0  0  0  0  0  0  0  0
  1  2  1  0
  2  3  2  0
  2  4  1  0
  4  5  2  0
  5  6  1  0
  6  7  2  0
  7  8  1  0
  8  9  2  0
  9 10  1  0
 10 11  2  0
 11 12  1  0
 12 13  2  0
 13 14  1  0
  1 15  1  0
 15 16  2  0
 16 17  1  0
 17 18  2  0
 18 19  1  0
 19 20  1  0
 20 21  1  0
 21 22  1  0
 22 23  1  0
 22 24  1  0
 24 25  1  0
 25 26  2  0
 19 27  1  1
 13  4  1  0
 26 15  1  0
 12  7  1  0
 25 18  1  0
M  END
>  <AAScore>  (1) 
38057.48588526526

>  <RootName>  (1) 
./4ZLY/04_DeltaGEst/trajectory_05/rank_00/lead_0129

$$$$
