confid_5
     RDKit          3D

 27 30  0  0  0  0  0  0  0  0999 V2000
   25.3300   26.2600   34.7600 N   0  0  0  0  0  0  0  0  0  0  0  0
   26.1200   25.9200   33.6900 C   0  0  0  0  0  0  0  0  0  0  0  0
   25.6300   25.1100   32.9400 O   0  0  0  0  0  0  0  0  0  0  0  0
   27.5200   26.3800   33.4600 C   0  0  0  0  0  0  0  0  0  0  0  0
   28.1600   26.6300   34.6100 N   0  0  0  0  0  0  0  0  0  0  0  0
   29.4800   26.8500   34.5700 N   0  0  0  0  0  0  0  0  0  0  0  0
   30.1900   26.7800   33.4400 C   0  0  0  0  0  0  0  0  0  0  0  0
   31.5600   27.0500   33.5000 C   0  0  0  0  0  0  0  0  0  0  0  0
   32.2700   27.2400   32.3100 C   0  0  0  0  0  0  0  0  0  0  0  0
   31.6100   27.2500   31.0800 C   0  0  0  0  0  0  0  0  0  0  0  0
   30.2700   26.8700   31.0600 C   0  0  0  0  0  0  0  0  0  0  0  0
   29.5100   26.6900   32.2300 C   0  0  0  0  0  0  0  0  0  0  0  0
   28.1400   26.4100   32.2000 C   0  0  0  0  0  0  0  0  0  0  0  0
   27.4300   26.1300   31.0500 N   0  0  0  0  0  0  0  0  0  0  0  0
   24.1392   25.5630   35.1803 C   0  0  0  0  0  0  0  0  0  0  0  0
   23.7926   24.3375   34.7256 N   0  0  0  0  0  0  0  0  0  0  0  0
   22.6780   24.0273   35.4168 C   0  0  0  0  0  0  0  0  0  0  0  0
   22.3762   25.0544   36.2843 C   0  0  0  0  0  0  0  0  0  0  0  0
   21.2516   25.0443   37.2906 C   0  0  0  0  0  0  0  0  0  0  0  0
   21.5976   25.7930   38.5181 N   0  0  0  0  0  0  0  0  0  0  0  0
   20.4734   25.7620   39.4663 C   0  0  0  0  0  0  0  0  0  0  0  0
   22.8516   25.3090   39.1422 C   0  0  0  0  0  0  0  0  0  0  0  0
   23.9197   26.3780   39.1217 C   0  0  0  0  0  0  0  0  0  0  0  0
   24.2069   27.2094   38.0884 C   0  0  0  0  0  0  0  0  0  0  0  0
   25.3921   28.1306   38.2380 C   0  0  0  0  0  0  0  0  0  0  0  0
   23.3583   27.3127   36.8329 C   0  0  0  0  0  0  0  0  0  0  0  0
   23.2903   26.0327   36.1236 N   0  0  0  0  0  0  0  0  0  0  0  0
  1  2  1  0
  2  3  2  0
  2  4  1  0
  4  5  2  0
  5  6  1  0
  6  7  2  0
  7  8  1  0
  8  9  2  0
  9 10  1  0
 10 11  2  0
 11 12  1  0
 12 13  2  0
 13 14  1  0
  1 15  1  0
 15 16  2  0
 16 17  1  0
 17 18  2  0
 18 19  1  0
 19 20  1  0
 20 21  1  0
 20 22  1  0
 22 23  1  0
 23 24  2  0
 24 25  1  0
 24 26  1  0
 26 27  1  0
 13  4  1  0
 27 15  1  0
 12  7  1  0
 27 18  1  0
M  END
>  <AAScore>  (1) 
12046.609046997452

>  <RootName>  (1) 
./4ZLY/04_DeltaGEst/trajectory_03/rank_00/lead_0451

$$$$
