confid_12
     RDKit          3D

 31 34  0  0  0  0  0  0  0  0999 V2000
   25.3300   26.2600   34.7600 N   0  0  0  0  0  0  0  0  0  0  0  0
   26.1200   25.9200   33.6900 C   0  0  0  0  0  0  0  0  0  0  0  0
   25.6300   25.1100   32.9400 O   0  0  0  0  0  0  0  0  0  0  0  0
   27.5200   26.3800   33.4600 C   0  0  0  0  0  0  0  0  0  0  0  0
   28.1600   26.6300   34.6100 N   0  0  0  0  0  0  0  0  0  0  0  0
   29.4800   26.8500   34.5700 N   0  0  0  0  0  0  0  0  0  0  0  0
   30.1900   26.7800   33.4400 C   0  0  0  0  0  0  0  0  0  0  0  0
   31.5600   27.0500   33.5000 C   0  0  0  0  0  0  0  0  0  0  0  0
   32.2700   27.2400   32.3100 C   0  0  0  0  0  0  0  0  0  0  0  0
   31.6100   27.2500   31.0800 C   0  0  0  0  0  0  0  0  0  0  0  0
   30.2700   26.8700   31.0600 C   0  0  0  0  0  0  0  0  0  0  0  0
   29.5100   26.6900   32.2300 C   0  0  0  0  0  0  0  0  0  0  0  0
   28.1400   26.4100   32.2000 C   0  0  0  0  0  0  0  0  0  0  0  0
   27.4300   26.1300   31.0500 N   0  0  0  0  0  0  0  0  0  0  0  0
   27.5802   24.8213   30.3980 C   0  0  0  0  0  0  0  0  0  0  0  0
   26.7069   24.7212   29.1421 C   0  0  0  0  0  0  0  0  0  0  0  0
   26.8384   25.9442   28.3333 N   0  0  0  0  0  0  0  0  0  0  0  0
   26.9996   25.8387   26.9004 C   0  0  0  0  0  0  0  0  0  0  0  0
   26.6247   24.7903   26.3059 O   0  0  0  0  0  0  0  0  0  0  0  0
   27.6696   26.8916   26.1072 C   0  0  0  0  0  0  0  0  0  0  0  0
   27.3102   28.2219   26.0228 C   0  0  0  0  0  0  0  0  0  0  0  0
   28.1524   28.8621   25.1871 N   0  0  0  0  0  0  0  0  0  0  0  0
   29.0072   27.9055   24.7713 C   0  0  0  0  0  0  0  0  0  0  0  0
   28.7346   26.6974   25.3036 N   0  0  0  0  0  0  0  0  0  0  0  0
   29.4772   25.4586   25.0561 C   0  0  0  0  0  0  0  0  0  0  0  0
   29.0755   24.8389   23.7178 C   0  0  0  0  0  0  0  0  0  0  0  0
   27.7136   24.6009   23.6915 F   0  0  0  0  0  0  0  0  0  0  0  0
   29.7432   23.6411   23.5459 F   0  0  0  0  0  0  0  0  0  0  0  0
   29.4076   25.6898   22.6786 F   0  0  0  0  0  0  0  0  0  0  0  0
   26.7433   27.2608   28.9843 C   0  0  0  0  0  0  0  0  0  0  0  0
   26.5215   27.1377   30.4951 C   0  0  0  0  0  0  0  0  0  0  0  0
  1  2  1  0
  2  3  2  0
  2  4  1  0
  4  5  2  0
  5  6  1  0
  6  7  2  0
  7  8  1  0
  8  9  2  0
  9 10  1  0
 10 11  2  0
 11 12  1  0
 12 13  2  0
 13 14  1  0
 14 15  1  0
 15 16  1  0
 16 17  1  0
 17 18  1  0
 18 19  2  0
 18 20  1  0
 20 21  2  0
 21 22  1  0
 22 23  2  0
 23 24  1  0
 24 25  1  0
 25 26  1  0
 26 27  1  0
 26 28  1  0
 26 29  1  0
 17 30  1  0
 30 31  1  0
 13  4  1  0
 31 14  1  0
 12  7  1  0
 24 20  1  0
M  END
>  <AAScore>  (1) 
-1.9854400735770723

>  <RootName>  (1) 
./4ZLY/04_DeltaGEst/trajectory_03/rank_01/lead_0097

$$$$
