confid_13
     RDKit          3D

 28 31  0  0  0  0  0  0  0  0999 V2000
   25.3300   26.2600   34.7600 N   0  0  0  0  0  0  0  0  0  0  0  0
   26.1200   25.9200   33.6900 C   0  0  0  0  0  0  0  0  0  0  0  0
   25.6300   25.1100   32.9400 O   0  0  0  0  0  0  0  0  0  0  0  0
   27.5200   26.3800   33.4600 C   0  0  0  0  0  0  0  0  0  0  0  0
   28.1600   26.6300   34.6100 N   0  0  0  0  0  0  0  0  0  0  0  0
   29.4800   26.8500   34.5700 N   0  0  0  0  0  0  0  0  0  0  0  0
   30.1900   26.7800   33.4400 C   0  0  0  0  0  0  0  0  0  0  0  0
   31.5600   27.0500   33.5000 C   0  0  0  0  0  0  0  0  0  0  0  0
   32.2700   27.2400   32.3100 C   0  0  0  0  0  0  0  0  0  0  0  0
   31.6100   27.2500   31.0800 C   0  0  0  0  0  0  0  0  0  0  0  0
   30.2700   26.8700   31.0600 C   0  0  0  0  0  0  0  0  0  0  0  0
   29.5100   26.6900   32.2300 C   0  0  0  0  0  0  0  0  0  0  0  0
   28.1400   26.4100   32.2000 C   0  0  0  0  0  0  0  0  0  0  0  0
   27.4300   26.1300   31.0500 N   0  0  0  0  0  0  0  0  0  0  0  0
   23.9067   26.0424   34.8401 C   0  0  0  0  0  0  0  0  0  0  0  0
   23.1433   25.7122   33.7658 N   0  0  0  0  0  0  0  0  0  0  0  0
   21.8969   25.7219   34.2746 C   0  0  0  0  0  0  0  0  0  0  0  0
   20.6477   26.1249   33.6032 C   0  0  0  0  0  0  0  0  0  0  0  0
   19.8076   26.7057   34.6859 N   0  0  0  0  0  0  0  0  0  0  0  0
   20.6761   26.8601   35.8831 C   0  0  0  0  0  0  0  0  0  0  0  0
   21.9047   26.1124   35.5490 C   0  0  0  0  0  0  0  0  0  0  0  0
   23.1688   26.3348   35.9423 N   0  0  0  0  0  0  0  0  0  0  0  0
   23.5990   27.0461   37.1424 C   0  0  0  0  0  0  0  0  0  0  0  0
   19.2005   27.9851   34.2857 C   0  0  0  0  0  0  0  0  0  0  0  0
   18.2996   27.7596   33.2197 O   0  0  0  0  0  0  0  0  0  0  0  0
   17.8409   28.9859   32.6772 C   0  0  0  0  0  0  0  0  0  0  0  0
   16.3695   28.8268   32.2966 C   0  0  0  0  0  0  0  0  0  0  0  0
   18.6697   29.3405   31.4390 C   0  0  0  0  0  0  0  0  0  0  0  0
  1  2  1  0
  2  3  2  0
  2  4  1  0
  4  5  2  0
  5  6  1  0
  6  7  2  0
  7  8  1  0
  8  9  2  0
  9 10  1  0
 10 11  2  0
 11 12  1  0
 12 13  2  0
 13 14  1  0
  1 15  1  0
 15 16  2  0
 16 17  1  0
 17 18  1  0
 18 19  1  0
 19 20  1  0
 20 21  1  0
 21 22  1  0
 22 23  1  0
 19 24  1  0
 24 25  1  0
 25 26  1  0
 26 27  1  0
 26 28  1  0
 13  4  1  0
 22 15  1  0
 12  7  1  0
 21 17  2  0
M  END
>  <AAScore>  (1) 
1142.613972646914

>  <RootName>  (1) 
./4ZLY/04_DeltaGEst/trajectory_03/rank_00/lead_0124

$$$$
