confid_0
     RDKit          3D

 27 30  0  0  0  0  0  0  0  0999 V2000
   24.5700   26.8800   35.5900 N   0  0  0  0  0  0  0  0  0  0  0  0
   25.5000   26.4000   34.6900 C   0  0  0  0  0  0  0  0  0  0  0  0
   25.1700   25.5200   33.9100 O   0  0  0  0  0  0  0  0  0  0  0  0
   26.8400   27.0200   34.7400 C   0  0  0  0  0  0  0  0  0  0  0  0
   27.3800   27.2800   35.9400 N   0  0  0  0  0  0  0  0  0  0  0  0
   28.6200   27.7400   36.0300 N   0  0  0  0  0  0  0  0  0  0  0  0
   29.3800   28.0000   34.9600 C   0  0  0  0  0  0  0  0  0  0  0  0
   30.6700   28.5000   35.1300 C   0  0  0  0  0  0  0  0  0  0  0  0
   31.5400   28.6100   34.0300 C   0  0  0  0  0  0  0  0  0  0  0  0
   31.0900   28.2200   32.7700 C   0  0  0  0  0  0  0  0  0  0  0  0
   29.8000   27.7000   32.6000 C   0  0  0  0  0  0  0  0  0  0  0  0
   28.9600   27.5500   33.7100 C   0  0  0  0  0  0  0  0  0  0  0  0
   27.6600   27.0300   33.5900 C   0  0  0  0  0  0  0  0  0  0  0  0
   27.1600   26.7400   32.3400 N   0  0  0  0  0  0  0  0  0  0  0  0
   23.3029   26.2615   35.8728 C   0  0  0  0  0  0  0  0  0  0  0  0
   22.4095   26.9034   36.6692 N   0  0  0  0  0  0  0  0  0  0  0  0
   21.2109   26.3459   36.9759 C   0  0  0  0  0  0  0  0  0  0  0  0
   20.8719   25.0814   36.4776 C   0  0  0  0  0  0  0  0  0  0  0  0
   19.5250   24.4653   36.8082 C   0  0  0  0  0  0  0  0  0  0  0  0
   19.5780   23.0020   37.3208 C   0  0  0  0  0  0  0  0  0  0  0  0
   20.9641   22.5163   37.5130 N   0  0  0  0  0  0  0  0  0  0  0  0
   21.0023   21.4598   38.5368 C   0  0  0  0  0  0  0  0  0  0  0  0
   21.5576   22.0081   36.2528 C   0  0  0  0  0  0  0  0  0  0  0  0
   21.5127   23.0459   35.1075 C   0  0  1  0  0  0  0  0  0  0  0  0
   21.8009   24.4347   35.6369 C   0  0  0  0  0  0  0  0  0  0  0  0
   22.9945   25.0341   35.3766 N   0  0  0  0  0  0  0  0  0  0  0  0
   22.4585   22.6408   33.9669 C   0  0  0  0  0  0  0  0  0  0  0  0
  1  2  1  0
  2  3  2  0
  2  4  1  0
  4  5  2  0
  5  6  1  0
  6  7  2  0
  7  8  1  0
  8  9  2  0
  9 10  1  0
 10 11  2  0
 11 12  1  0
 12 13  2  0
 13 14  1  0
  1 15  1  0
 15 16  2  0
 16 17  1  0
 17 18  2  0
 18 19  1  0
 19 20  1  0
 20 21  1  0
 21 22  1  0
 21 23  1  0
 23 24  1  0
 24 25  1  0
 25 26  2  0
 24 27  1  6
 13  4  1  0
 26 15  1  0
 12  7  1  0
 25 18  1  0
M  END
>  <AAScore>  (1) 
37991.12963911783

>  <RootName>  (1) 
./4ZLY/04_DeltaGEst/trajectory_05/rank_00/lead_0177

$$$$
