confid_11
     RDKit          3D

 27 30  0  0  0  0  0  0  0  0999 V2000
   24.2000   26.2400   35.6900 N   0  0  0  0  0  0  0  0  0  0  0  0
   24.8500   26.2800   34.4800 C   0  0  0  0  0  0  0  0  0  0  0  0
   24.3100   25.7400   33.5400 O   0  0  0  0  0  0  0  0  0  0  0  0
   26.1800   26.9700   34.4700 C   0  0  0  0  0  0  0  0  0  0  0  0
   26.6500   27.6000   35.5500 N   0  0  0  0  0  0  0  0  0  0  0  0
   27.7900   28.2700   35.6200 N   0  0  0  0  0  0  0  0  0  0  0  0
   28.5400   28.3000   34.5100 C   0  0  0  0  0  0  0  0  0  0  0  0
   29.7700   28.9400   34.5600 C   0  0  0  0  0  0  0  0  0  0  0  0
   30.7000   28.8900   33.5000 C   0  0  0  0  0  0  0  0  0  0  0  0
   30.3700   28.1400   32.3700 C   0  0  0  0  0  0  0  0  0  0  0  0
   29.1200   27.5200   32.2800 C   0  0  0  0  0  0  0  0  0  0  0  0
   28.2100   27.6100   33.3300 C   0  0  0  0  0  0  0  0  0  0  0  0
   26.9700   26.9700   33.3100 C   0  0  0  0  0  0  0  0  0  0  0  0
   26.5300   26.2400   32.2200 N   0  0  0  0  0  0  0  0  0  0  0  0
   30.1404   29.6790   35.7377 N   0  0  0  0  0  0  0  0  0  0  0  0
   29.3665   30.8617   36.1361 C   0  0  0  0  0  0  0  0  0  0  0  0
   30.3086   31.9665   36.6240 C   0  0  0  0  0  0  0  0  0  0  0  0
   31.3070   31.4399   37.5627 N   0  0  0  0  0  0  0  0  0  0  0  0
   31.3864   30.0059   37.8578 C   0  0  0  0  0  0  0  0  0  0  0  0
   31.2563   29.1963   36.5642 C   0  0  0  0  0  0  0  0  0  0  0  0
   32.2517   32.3373   38.1578 C   0  0  0  0  0  0  0  0  0  0  0  0
   33.5020   32.4270   37.6265 N   0  0  0  0  0  0  0  0  0  0  0  0
   34.4453   33.2591   38.1398 C   0  0  0  0  0  0  0  0  0  0  0  0
   34.1452   34.0595   39.2416 C   0  0  0  0  0  0  0  0  0  0  0  0
   32.8742   33.9876   39.8135 C   0  0  0  0  0  0  0  0  0  0  0  0
   31.9132   33.1101   39.2894 C   0  0  0  0  0  0  0  0  0  0  0  0
   30.5439   33.0501   39.9080 C   0  0  0  0  0  0  0  0  0  0  0  0
  1  2  1  0
  2  3  2  0
  2  4  1  0
  4  5  2  0
  5  6  1  0
  6  7  2  0
  7  8  1  0
  8  9  2  0
  9 10  1  0
 10 11  2  0
 11 12  1  0
 12 13  2  0
 13 14  1  0
  8 15  1  0
 15 16  1  0
 16 17  1  0
 17 18  1  0
 18 19  1  0
 19 20  1  0
 18 21  1  0
 21 22  2  0
 22 23  1  0
 23 24  2  0
 24 25  1  0
 25 26  2  0
 26 27  1  0
 13  4  1  0
 20 15  1  0
 26 21  1  0
 12  7  1  0
M  END
>  <AAScore>  (1) 
-7.985682226386729

>  <RootName>  (1) 
./4ZLY/04_DeltaGEst/trajectory_04/rank_01/lead_0172

$$$$
