confid_0
     RDKit          3D

 31 35  0  0  0  0  0  0  0  0999 V2000
   25.3300   26.2600   34.7600 N   0  0  0  0  0  0  0  0  0  0  0  0
   26.1200   25.9200   33.6900 C   0  0  0  0  0  0  0  0  0  0  0  0
   25.6300   25.1100   32.9400 O   0  0  0  0  0  0  0  0  0  0  0  0
   27.5200   26.3800   33.4600 C   0  0  0  0  0  0  0  0  0  0  0  0
   28.1600   26.6300   34.6100 N   0  0  0  0  0  0  0  0  0  0  0  0
   29.4800   26.8500   34.5700 N   0  0  0  0  0  0  0  0  0  0  0  0
   30.1900   26.7800   33.4400 C   0  0  0  0  0  0  0  0  0  0  0  0
   31.5600   27.0500   33.5000 C   0  0  0  0  0  0  0  0  0  0  0  0
   32.2700   27.2400   32.3100 C   0  0  0  0  0  0  0  0  0  0  0  0
   31.6100   27.2500   31.0800 C   0  0  0  0  0  0  0  0  0  0  0  0
   30.2700   26.8700   31.0600 C   0  0  0  0  0  0  0  0  0  0  0  0
   29.5100   26.6900   32.2300 C   0  0  0  0  0  0  0  0  0  0  0  0
   28.1400   26.4100   32.2000 C   0  0  0  0  0  0  0  0  0  0  0  0
   27.4300   26.1300   31.0500 N   0  0  0  0  0  0  0  0  0  0  0  0
   26.5041   27.1441   30.5282 C   0  0  0  0  0  0  0  0  0  0  0  0
   26.5880   27.1909   29.0057 C   0  0  0  0  0  0  0  0  0  0  0  0
   26.3459   25.8517   28.4554 N   0  0  0  0  0  0  0  0  0  0  0  0
   25.4036   25.6815   27.3393 C   0  0  0  0  0  0  0  0  0  0  0  0
   26.1366   25.6677   26.0240 C   0  0  0  0  0  0  0  0  0  0  0  0
   27.1000   26.4637   25.8535 O   0  0  0  0  0  0  0  0  0  0  0  0
   25.7309   24.8065   24.9448 N   0  0  0  0  0  0  0  0  0  0  0  0
   24.5588   23.9477   24.9710 C   0  0  0  0  0  0  0  0  0  0  0  0
   24.4259   23.3924   23.5593 C   0  0  0  0  0  0  0  0  0  0  0  0
   25.7797   23.6204   22.8924 C   0  0  0  0  0  0  0  0  0  0  0  0
   26.4528   24.7315   23.6868 C   0  0  0  0  0  0  0  0  0  0  0  0
   27.0351   24.7284   29.0544 C   0  0  0  0  0  0  0  0  0  0  0  0
   27.1759   23.5014   28.3757 C   0  0  0  0  0  0  0  0  0  0  0  0
   27.8482   22.4345   28.9736 C   0  0  0  0  0  0  0  0  0  0  0  0
   28.3859   22.5733   30.2519 C   0  0  0  0  0  0  0  0  0  0  0  0
   28.2561   23.7805   30.9392 C   0  0  0  0  0  0  0  0  0  0  0  0
   27.5836   24.8707   30.3499 C   0  0  0  0  0  0  0  0  0  0  0  0
  1  2  1  0
  2  3  2  0
  2  4  1  0
  4  5  2  0
  5  6  1  0
  6  7  2  0
  7  8  1  0
  8  9  2  0
  9 10  1  0
 10 11  2  0
 11 12  1  0
 12 13  2  0
 13 14  1  0
 14 15  1  0
 15 16  1  0
 16 17  1  0
 17 18  1  0
 18 19  1  0
 19 20  2  0
 19 21  1  0
 21 22  1  0
 22 23  1  0
 23 24  1  0
 24 25  1  0
 17 26  1  0
 26 27  2  0
 27 28  1  0
 28 29  2  0
 29 30  1  0
 30 31  2  0
 13  4  1  0
 31 14  1  0
 12  7  1  0
 25 21  1  0
 31 26  1  0
M  END
>  <AAScore>  (1) 
55.50548337015576

>  <RootName>  (1) 
./4ZLY/04_DeltaGEst/trajectory_03/rank_01/lead_0017

$$$$
