confid_12
     RDKit          3D

 27 30  0  0  0  0  0  0  0  0999 V2000
   24.5500   26.3900   36.2500 N   0  0  0  0  0  0  0  0  0  0  0  0
   25.6000   26.1300   35.4000 C   0  0  0  0  0  0  0  0  0  0  0  0
   25.4300   25.4300   34.4200 O   0  0  0  0  0  0  0  0  0  0  0  0
   26.9800   26.6300   35.7100 C   0  0  0  0  0  0  0  0  0  0  0  0
   27.3200   26.8200   36.9800 N   0  0  0  0  0  0  0  0  0  0  0  0
   28.4700   27.4000   37.3100 N   0  0  0  0  0  0  0  0  0  0  0  0
   29.4000   27.6300   36.3700 C   0  0  0  0  0  0  0  0  0  0  0  0
   30.6600   28.0500   36.8000 C   0  0  0  0  0  0  0  0  0  0  0  0
   31.5700   28.3600   35.7800 C   0  0  0  0  0  0  0  0  0  0  0  0
   31.3700   28.1000   34.4300 C   0  0  0  0  0  0  0  0  0  0  0  0
   30.1200   27.5900   34.0500 C   0  0  0  0  0  0  0  0  0  0  0  0
   29.1500   27.3400   35.0300 C   0  0  0  0  0  0  0  0  0  0  0  0
   27.8800   26.8900   34.6600 C   0  0  0  0  0  0  0  0  0  0  0  0
   27.4800   26.6100   33.3700 N   0  0  0  0  0  0  0  0  0  0  0  0
   23.1607   26.2886   35.8910 C   0  0  0  0  0  0  0  0  0  0  0  0
   22.2502   26.0224   36.8636 N   0  0  0  0  0  0  0  0  0  0  0  0
   20.9132   25.9492   36.6190 C   0  0  0  0  0  0  0  0  0  0  0  0
   20.0257   25.6533   37.6598 O   0  0  0  0  0  0  0  0  0  0  0  0
   20.4529   25.4141   38.9956 C   0  0  0  0  0  0  0  0  0  0  0  0
   20.4277   26.1717   35.3166 C   0  0  0  0  0  0  0  0  0  0  0  0
   18.9525   26.0684   35.0035 C   0  0  0  0  0  0  0  0  0  0  0  0
   18.6612   24.8495   34.1088 C   0  0  0  0  0  0  0  0  0  0  0  0
   19.7017   24.5738   33.1852 O   0  0  0  0  0  0  0  0  0  0  0  0
   19.9014   25.6594   32.2968 C   0  0  0  0  0  0  0  0  0  0  0  0
   20.8791   26.7197   32.8616 C   0  0  0  0  0  0  0  0  0  0  0  0
   21.3488   26.4489   34.2804 C   0  0  0  0  0  0  0  0  0  0  0  0
   22.7160   26.5287   34.5819 C   0  0  0  0  0  0  0  0  0  0  0  0
  1  2  1  0
  2  3  2  0
  2  4  1  0
  4  5  2  0
  5  6  1  0
  6  7  2  0
  7  8  1  0
  8  9  2  0
  9 10  1  0
 10 11  2  0
 11 12  1  0
 12 13  2  0
 13 14  1  0
  1 15  1  0
 15 16  2  0
 16 17  1  0
 17 18  1  0
 18 19  1  0
 17 20  2  0
 20 21  1  0
 21 22  1  0
 22 23  1  0
 23 24  1  0
 24 25  1  0
 25 26  1  0
 26 27  2  0
 13  4  1  0
 27 15  1  0
 12  7  1  0
 26 20  1  0
M  END
>  <AAScore>  (1) 
454.24452449988127

>  <RootName>  (1) 
./4ZLY/04_DeltaGEst/trajectory_01/rank_00/lead_0465

$$$$
