confid_4
     RDKit          3D

 26 28  0  0  0  0  0  0  0  0999 V2000
   24.6900   26.1200   35.5300 N   0  0  0  0  0  0  0  0  0  0  0  0
   25.6600   25.6700   34.6600 C   0  0  0  0  0  0  0  0  0  0  0  0
   25.2400   25.0100   33.7200 O   0  0  0  0  0  0  0  0  0  0  0  0
   27.0300   26.2200   34.8800 C   0  0  0  0  0  0  0  0  0  0  0  0
   27.3500   26.7300   36.0700 N   0  0  0  0  0  0  0  0  0  0  0  0
   28.5700   27.1800   36.3300 N   0  0  0  0  0  0  0  0  0  0  0  0
   29.5300   27.1100   35.3900 C   0  0  0  0  0  0  0  0  0  0  0  0
   30.8300   27.5700   35.6500 C   0  0  0  0  0  0  0  0  0  0  0  0
   31.8500   27.5400   34.6900 C   0  0  0  0  0  0  0  0  0  0  0  0
   31.5100   27.1200   33.4000 C   0  0  0  0  0  0  0  0  0  0  0  0
   30.2200   26.6300   33.1100 C   0  0  0  0  0  0  0  0  0  0  0  0
   29.2400   26.6600   34.1000 C   0  0  0  0  0  0  0  0  0  0  0  0
   27.9300   26.2600   33.8100 C   0  0  0  0  0  0  0  0  0  0  0  0
   27.5200   25.7100   32.6100 N   0  0  0  0  0  0  0  0  0  0  0  0
   23.2484   25.8171   35.4407 C   0  0  0  0  0  0  0  0  0  0  0  0
   22.9699   24.2932   35.4849 C   0  0  0  0  0  0  0  0  0  0  0  0
   22.0778   23.8292   34.3279 C   0  0  0  0  0  0  0  0  0  0  0  0
   20.8552   24.6582   34.2636 N   0  0  0  0  0  0  0  0  0  0  0  0
   19.9055   24.1585   33.2394 C   0  0  0  0  0  0  0  0  0  0  0  0
   19.2302   22.8445   33.6749 C   0  0  0  0  0  0  0  0  0  0  0  0
   18.0118   22.5289   32.7955 C   0  0  0  0  0  0  0  0  0  0  0  0
   17.4462   21.2084   33.1518 N   0  0  0  0  0  0  0  0  0  0  0  0
   18.0871   20.1311   32.3738 C   0  0  0  0  0  0  0  0  0  0  0  0
   15.9925   21.1869   32.9106 C   0  0  0  0  0  0  0  0  0  0  0  0
   21.1355   26.1104   34.0577 C   0  0  0  0  0  0  0  0  0  0  0  0
   22.6150   26.5062   34.2197 C   0  0  0  0  0  0  0  0  0  0  0  0
  1  2  1  0
  2  3  2  0
  2  4  1  0
  4  5  2  0
  5  6  1  0
  6  7  2  0
  7  8  1  0
  8  9  2  0
  9 10  1  0
 10 11  2  0
 11 12  1  0
 12 13  2  0
 13 14  1  0
  1 15  1  0
 15 16  1  0
 16 17  1  0
 17 18  1  0
 18 19  1  0
 19 20  1  0
 20 21  1  0
 21 22  1  0
 22 23  1  0
 22 24  1  0
 18 25  1  0
 25 26  1  0
 13  4  1  0
 26 15  1  0
 12  7  1  0
M  END
>  <AAScore>  (1) 
2021.448514818675

>  <RootName>  (1) 
./4ZLY/04_DeltaGEst/trajectory_02/rank_00/lead_0009

$$$$
