confid_14
     RDKit          3D

 29 32  0  0  0  0  0  0  0  0999 V2000
   25.3300   26.2600   34.7600 N   0  0  0  0  0  0  0  0  0  0  0  0
   26.1200   25.9200   33.6900 C   0  0  0  0  0  0  0  0  0  0  0  0
   25.6300   25.1100   32.9400 O   0  0  0  0  0  0  0  0  0  0  0  0
   27.5200   26.3800   33.4600 C   0  0  0  0  0  0  0  0  0  0  0  0
   28.1600   26.6300   34.6100 N   0  0  0  0  0  0  0  0  0  0  0  0
   29.4800   26.8500   34.5700 N   0  0  0  0  0  0  0  0  0  0  0  0
   30.1900   26.7800   33.4400 C   0  0  0  0  0  0  0  0  0  0  0  0
   31.5600   27.0500   33.5000 C   0  0  0  0  0  0  0  0  0  0  0  0
   32.2700   27.2400   32.3100 C   0  0  0  0  0  0  0  0  0  0  0  0
   31.6100   27.2500   31.0800 C   0  0  0  0  0  0  0  0  0  0  0  0
   30.2700   26.8700   31.0600 C   0  0  0  0  0  0  0  0  0  0  0  0
   29.5100   26.6900   32.2300 C   0  0  0  0  0  0  0  0  0  0  0  0
   28.1400   26.4100   32.2000 C   0  0  0  0  0  0  0  0  0  0  0  0
   27.4300   26.1300   31.0500 N   0  0  0  0  0  0  0  0  0  0  0  0
   24.2216   25.4926   35.2646 C   0  0  0  0  0  0  0  0  0  0  0  0
   23.1737   26.1448   35.8340 N   0  0  0  0  0  0  0  0  0  0  0  0
   22.1010   25.4868   36.3454 C   0  0  0  0  0  0  0  0  0  0  0  0
   22.0409   24.0863   36.3050 C   0  0  0  0  0  0  0  0  0  0  0  0
   20.8329   23.3674   36.8720 C   0  0  0  0  0  0  0  0  0  0  0  0
   20.2996   22.2791   35.9664 C   0  0  0  0  0  0  0  0  0  0  0  0
   19.3893   21.5702   36.3680 O   0  0  0  0  0  0  0  0  0  0  0  0
   20.8852   22.0244   34.5961 C   0  0  0  0  0  0  0  0  0  0  0  0
   22.1950   21.3327   34.6635 N   0  0  0  0  0  0  0  0  0  0  0  0
   22.8304   21.2759   33.3267 C   0  0  0  0  0  0  0  0  0  0  0  0
   23.5848   19.9532   33.1356 C   0  0  0  0  0  0  0  0  0  0  0  0
   22.6425   18.7510   33.1689 C   0  0  0  0  0  0  0  0  0  0  0  0
   23.1230   21.8636   35.6967 C   0  0  0  0  0  0  0  0  0  0  0  0
   23.1360   23.3776   35.7613 C   0  0  0  0  0  0  0  0  0  0  0  0
   24.2262   24.0888   35.2402 C   0  0  0  0  0  0  0  0  0  0  0  0
  1  2  1  0
  2  3  2  0
  2  4  1  0
  4  5  2  0
  5  6  1  0
  6  7  2  0
  7  8  1  0
  8  9  2  0
  9 10  1  0
 10 11  2  0
 11 12  1  0
 12 13  2  0
 13 14  1  0
  1 15  1  0
 15 16  2  0
 16 17  1  0
 17 18  2  0
 18 19  1  0
 19 20  1  0
 20 21  2  0
 20 22  1  0
 22 23  1  0
 23 24  1  0
 24 25  1  0
 25 26  1  0
 23 27  1  0
 27 28  1  0
 28 29  2  0
 13  4  1  0
 29 15  1  0
 12  7  1  0
 28 18  1  0
M  END
>  <AAScore>  (1) 
10012.55281523634

>  <RootName>  (1) 
./4ZLY/04_DeltaGEst/trajectory_03/rank_00/lead_0055

$$$$
