confid_17
     RDKit          3D

 27 30  0  0  0  0  0  0  0  0999 V2000
   24.5500   26.3900   36.2500 N   0  0  0  0  0  0  0  0  0  0  0  0
   25.6000   26.1300   35.4000 C   0  0  0  0  0  0  0  0  0  0  0  0
   25.4300   25.4300   34.4200 O   0  0  0  0  0  0  0  0  0  0  0  0
   26.9800   26.6300   35.7100 C   0  0  0  0  0  0  0  0  0  0  0  0
   27.3200   26.8200   36.9800 N   0  0  0  0  0  0  0  0  0  0  0  0
   28.4700   27.4000   37.3100 N   0  0  0  0  0  0  0  0  0  0  0  0
   29.4000   27.6300   36.3700 C   0  0  0  0  0  0  0  0  0  0  0  0
   30.6600   28.0500   36.8000 C   0  0  0  0  0  0  0  0  0  0  0  0
   31.5700   28.3600   35.7800 C   0  0  0  0  0  0  0  0  0  0  0  0
   31.3700   28.1000   34.4300 C   0  0  0  0  0  0  0  0  0  0  0  0
   30.1200   27.5900   34.0500 C   0  0  0  0  0  0  0  0  0  0  0  0
   29.1500   27.3400   35.0300 C   0  0  0  0  0  0  0  0  0  0  0  0
   27.8800   26.8900   34.6600 C   0  0  0  0  0  0  0  0  0  0  0  0
   27.4800   26.6100   33.3700 N   0  0  0  0  0  0  0  0  0  0  0  0
   30.9672   28.2969   38.1793 N   0  0  0  0  0  0  0  0  0  0  0  0
   30.3667   29.4320   38.8822 C   0  0  0  0  0  0  0  0  0  0  0  0
   29.8080   28.9626   40.2283 C   0  0  0  0  0  0  0  0  0  0  0  0
   30.7645   28.1055   40.9571 N   0  0  0  0  0  0  0  0  0  0  0  0
   30.4708   27.6551   42.3046 C   0  0  0  0  0  0  0  0  0  0  0  0
   29.1741   27.7537   42.8502 C   0  0  0  0  0  0  0  0  0  0  0  0
   28.9252   27.2846   44.1479 C   0  0  0  0  0  0  0  0  0  0  0  0
   27.5526   27.4103   44.7410 C   0  0  0  0  0  0  0  0  0  0  0  0
   29.9796   26.7553   44.9028 C   0  0  0  0  0  0  0  0  0  0  0  0
   31.2541   26.6863   44.3417 C   0  0  0  0  0  0  0  0  0  0  0  0
   31.4657   27.1249   43.0734 N   0  0  0  0  0  0  0  0  0  0  0  0
   32.0696   27.7973   40.3440 C   0  0  0  0  0  0  0  0  0  0  0  0
   31.8946   27.3985   38.8733 C   0  0  0  0  0  0  0  0  0  0  0  0
  1  2  1  0
  2  3  2  0
  2  4  1  0
  4  5  2  0
  5  6  1  0
  6  7  2  0
  7  8  1  0
  8  9  2  0
  9 10  1  0
 10 11  2  0
 11 12  1  0
 12 13  2  0
 13 14  1  0
  8 15  1  0
 15 16  1  0
 16 17  1  0
 17 18  1  0
 18 19  1  0
 19 20  2  0
 20 21  1  0
 21 22  1  0
 21 23  2  0
 23 24  1  0
 24 25  2  0
 18 26  1  0
 26 27  1  0
 13  4  1  0
 27 15  1  0
 12  7  1  0
 25 19  1  0
M  END
>  <AAScore>  (1) 
172.47245228082477

>  <RootName>  (1) 
./4ZLY/04_DeltaGEst/trajectory_01/rank_01/lead_0101

$$$$
