confid_19
     RDKit          3D

 28 31  0  0  0  0  0  0  0  0999 V2000
   24.2000   26.2400   35.6900 N   0  0  0  0  0  0  0  0  0  0  0  0
   24.8500   26.2800   34.4800 C   0  0  0  0  0  0  0  0  0  0  0  0
   24.3100   25.7400   33.5400 O   0  0  0  0  0  0  0  0  0  0  0  0
   26.1800   26.9700   34.4700 C   0  0  0  0  0  0  0  0  0  0  0  0
   26.6500   27.6000   35.5500 N   0  0  0  0  0  0  0  0  0  0  0  0
   27.7900   28.2700   35.6200 N   0  0  0  0  0  0  0  0  0  0  0  0
   28.5400   28.3000   34.5100 C   0  0  0  0  0  0  0  0  0  0  0  0
   29.7700   28.9400   34.5600 C   0  0  0  0  0  0  0  0  0  0  0  0
   30.7000   28.8900   33.5000 C   0  0  0  0  0  0  0  0  0  0  0  0
   30.3700   28.1400   32.3700 C   0  0  0  0  0  0  0  0  0  0  0  0
   29.1200   27.5200   32.2800 C   0  0  0  0  0  0  0  0  0  0  0  0
   28.2100   27.6100   33.3300 C   0  0  0  0  0  0  0  0  0  0  0  0
   26.9700   26.9700   33.3100 C   0  0  0  0  0  0  0  0  0  0  0  0
   26.5300   26.2400   32.2200 N   0  0  0  0  0  0  0  0  0  0  0  0
   30.1445   29.6510   35.7510 N   0  0  0  0  0  0  0  0  0  0  0  0
   30.6548   28.9864   36.9492 C   0  0  0  0  0  0  0  0  0  0  0  0
   31.2352   30.1067   37.8705 C   0  0  2  0  0  0  0  0  0  0  0  0
   30.4046   30.2270   39.1025 N   0  0  0  0  0  0  0  0  0  0  0  0
   30.6035   31.5003   39.8186 C   0  0  0  0  0  0  0  0  0  0  0  0
   30.7159   29.1215   40.0313 C   0  0  0  0  0  0  0  0  0  0  0  0
   31.1718   31.3152   36.9671 C   0  0  0  0  0  0  0  0  0  0  0  0
   31.8058   32.5544   37.1269 C   0  0  0  0  0  0  0  0  0  0  0  0
   31.6778   33.5189   36.1154 C   0  0  0  0  0  0  0  0  0  0  0  0
   30.9588   33.2234   34.9406 C   0  0  0  0  0  0  0  0  0  0  0  0
   30.3888   31.9510   34.7688 C   0  0  0  0  0  0  0  0  0  0  0  0
   30.5282   31.0123   35.7967 C   0  0  0  0  0  0  0  0  0  0  0  0
   30.8376   34.2122   33.9019 C   0  0  0  0  0  0  0  0  0  0  0  0
   30.7401   35.0072   33.0667 N   0  0  0  0  0  0  0  0  0  0  0  0
  1  2  1  0
  2  3  2  0
  2  4  1  0
  4  5  2  0
  5  6  1  0
  6  7  2  0
  7  8  1  0
  8  9  2  0
  9 10  1  0
 10 11  2  0
 11 12  1  0
 12 13  2  0
 13 14  1  0
  8 15  1  0
 15 16  1  0
 16 17  1  0
 17 18  1  1
 18 19  1  0
 18 20  1  0
 17 21  1  0
 21 22  2  0
 22 23  1  0
 23 24  2  0
 24 25  1  0
 25 26  2  0
 24 27  1  0
 27 28  3  0
 13  4  1  0
 26 15  1  0
 12  7  1  0
 26 21  1  0
M  END
>  <AAScore>  (1) 
-4.294629072441828

>  <RootName>  (1) 
./4ZLY/04_DeltaGEst/trajectory_04/rank_01/lead_0124

$$$$
