confid_5
     RDKit          3D

 28 31  0  0  0  0  0  0  0  0999 V2000
   24.5700   26.8800   35.5900 N   0  0  0  0  0  0  0  0  0  0  0  0
   25.5000   26.4000   34.6900 C   0  0  0  0  0  0  0  0  0  0  0  0
   25.1700   25.5200   33.9100 O   0  0  0  0  0  0  0  0  0  0  0  0
   26.8400   27.0200   34.7400 C   0  0  0  0  0  0  0  0  0  0  0  0
   27.3800   27.2800   35.9400 N   0  0  0  0  0  0  0  0  0  0  0  0
   28.6200   27.7400   36.0300 N   0  0  0  0  0  0  0  0  0  0  0  0
   29.3800   28.0000   34.9600 C   0  0  0  0  0  0  0  0  0  0  0  0
   30.6700   28.5000   35.1300 C   0  0  0  0  0  0  0  0  0  0  0  0
   31.5400   28.6100   34.0300 C   0  0  0  0  0  0  0  0  0  0  0  0
   31.0900   28.2200   32.7700 C   0  0  0  0  0  0  0  0  0  0  0  0
   29.8000   27.7000   32.6000 C   0  0  0  0  0  0  0  0  0  0  0  0
   28.9600   27.5500   33.7100 C   0  0  0  0  0  0  0  0  0  0  0  0
   27.6600   27.0300   33.5900 C   0  0  0  0  0  0  0  0  0  0  0  0
   27.1600   26.7400   32.3400 N   0  0  0  0  0  0  0  0  0  0  0  0
   23.1660   26.5702   35.5726 C   0  0  0  0  0  0  0  0  0  0  0  0
   22.5918   25.9581   34.5015 N   0  0  0  0  0  0  0  0  0  0  0  0
   21.2637   25.6809   34.4773 C   0  0  0  0  0  0  0  0  0  0  0  0
   20.4559   26.0173   35.5686 C   0  0  0  0  0  0  0  0  0  0  0  0
   18.9629   25.7939   35.5151 C   0  0  0  0  0  0  0  0  0  0  0  0
   18.2233   27.0686   35.0717 C   0  0  0  0  0  0  0  0  0  0  0  0
   18.9899   28.2918   35.4123 N   0  0  0  0  0  0  0  0  0  0  0  0
   18.6697   29.3737   34.4662 C   0  0  0  0  0  0  0  0  0  0  0  0
   18.7486   28.7550   36.7954 C   0  0  0  0  0  0  0  0  0  0  0  0
   19.1864   27.7944   37.8811 C   0  0  0  0  0  0  0  0  0  0  0  0
   20.2906   27.0177   37.8791 C   0  0  0  0  0  0  0  0  0  0  0  0
   21.0565   26.6857   36.6556 C   0  0  0  0  0  0  0  0  0  0  0  0
   22.3939   26.9245   36.6340 N   0  0  0  0  0  0  0  0  0  0  0  0
   20.6618   26.2923   39.1426 C   0  0  0  0  0  0  0  0  0  0  0  0
  1  2  1  0
  2  3  2  0
  2  4  1  0
  4  5  2  0
  5  6  1  0
  6  7  2  0
  7  8  1  0
  8  9  2  0
  9 10  1  0
 10 11  2  0
 11 12  1  0
 12 13  2  0
 13 14  1  0
  1 15  1  0
 15 16  2  0
 16 17  1  0
 17 18  2  0
 18 19  1  0
 19 20  1  0
 20 21  1  0
 21 22  1  0
 21 23  1  0
 23 24  1  0
 24 25  2  0
 25 26  1  0
 26 27  2  0
 25 28  1  0
 13  4  1  0
 27 15  1  0
 12  7  1  0
 26 18  1  0
M  END
>  <AAScore>  (1) 
5793.109957958026

>  <RootName>  (1) 
./4ZLY/04_DeltaGEst/trajectory_05/rank_00/lead_0337

$$$$
