confid_4
     RDKit          3D

 29 32  0  0  0  0  0  0  0  0999 V2000
   24.5700   26.8800   35.5900 N   0  0  0  0  0  0  0  0  0  0  0  0
   25.5000   26.4000   34.6900 C   0  0  0  0  0  0  0  0  0  0  0  0
   25.1700   25.5200   33.9100 O   0  0  0  0  0  0  0  0  0  0  0  0
   26.8400   27.0200   34.7400 C   0  0  0  0  0  0  0  0  0  0  0  0
   27.3800   27.2800   35.9400 N   0  0  0  0  0  0  0  0  0  0  0  0
   28.6200   27.7400   36.0300 N   0  0  0  0  0  0  0  0  0  0  0  0
   29.3800   28.0000   34.9600 C   0  0  0  0  0  0  0  0  0  0  0  0
   30.6700   28.5000   35.1300 C   0  0  0  0  0  0  0  0  0  0  0  0
   31.5400   28.6100   34.0300 C   0  0  0  0  0  0  0  0  0  0  0  0
   31.0900   28.2200   32.7700 C   0  0  0  0  0  0  0  0  0  0  0  0
   29.8000   27.7000   32.6000 C   0  0  0  0  0  0  0  0  0  0  0  0
   28.9600   27.5500   33.7100 C   0  0  0  0  0  0  0  0  0  0  0  0
   27.6600   27.0300   33.5900 C   0  0  0  0  0  0  0  0  0  0  0  0
   27.1600   26.7400   32.3400 N   0  0  0  0  0  0  0  0  0  0  0  0
   23.1343   26.8166   35.4548 C   0  0  0  0  0  0  0  0  0  0  0  0
   22.3704   27.2017   36.4254 N   0  0  0  0  0  0  0  0  0  0  0  0
   21.0243   27.1323   35.9845 C   0  0  0  0  0  0  0  0  0  0  0  0
   20.9425   26.7201   34.7286 C   0  0  0  0  0  0  0  0  0  0  0  0
   19.6713   26.1701   34.1363 C   0  0  0  0  0  0  0  0  0  0  0  0
   19.9464   25.2970   32.9724 N   0  0  0  0  0  0  0  0  0  0  0  0
   18.6941   25.1027   32.2127 C   0  0  0  0  0  0  0  0  0  0  0  0
   20.5527   23.9903   33.3757 C   0  0  1  0  0  0  0  0  0  0  0  0
   20.9103   23.1429   32.1368 C   0  0  0  0  0  0  0  0  0  0  0  0
   21.8382   24.1921   34.2210 C   0  0  0  0  0  0  0  0  0  0  0  0
   22.6316   25.2285   33.6676 O   0  0  0  0  0  0  0  0  0  0  0  0
   22.3491   26.5291   34.1867 C   0  0  2  0  0  0  0  0  0  0  0  0
   22.6846   27.6106   33.1275 C   0  0  0  0  0  0  0  0  0  0  0  0
   21.9048   27.4494   31.8127 C   0  0  0  0  0  0  0  0  0  0  0  0
   22.3862   28.4472   30.7626 C   0  0  0  0  0  0  0  0  0  0  0  0
  1  2  1  0
  2  3  2  0
  2  4  1  0
  4  5  2  0
  5  6  1  0
  6  7  2  0
  7  8  1  0
  8  9  2  0
  9 10  1  0
 10 11  2  0
 11 12  1  0
 12 13  2  0
 13 14  1  0
  1 15  1  0
 15 16  2  0
 16 17  1  0
 17 18  2  0
 18 19  1  0
 19 20  1  0
 20 21  1  0
 20 22  1  0
 22 23  1  6
 22 24  1  0
 24 25  1  0
 25 26  1  0
 26 27  1  6
 27 28  1  0
 28 29  1  0
 13  4  1  0
 26 15  1  0
 12  7  1  0
 26 18  1  0
M  END
>  <AAScore>  (1) 
3601.887595573972

>  <RootName>  (1) 
./4ZLY/04_DeltaGEst/trajectory_05/rank_00/lead_0368

$$$$
