confid_8
     RDKit          3D

 28 31  0  0  0  0  0  0  0  0999 V2000
   25.3300   26.2600   34.7600 N   0  0  0  0  0  0  0  0  0  0  0  0
   26.1200   25.9200   33.6900 C   0  0  0  0  0  0  0  0  0  0  0  0
   25.6300   25.1100   32.9400 O   0  0  0  0  0  0  0  0  0  0  0  0
   27.5200   26.3800   33.4600 C   0  0  0  0  0  0  0  0  0  0  0  0
   28.1600   26.6300   34.6100 N   0  0  0  0  0  0  0  0  0  0  0  0
   29.4800   26.8500   34.5700 N   0  0  0  0  0  0  0  0  0  0  0  0
   30.1900   26.7800   33.4400 C   0  0  0  0  0  0  0  0  0  0  0  0
   31.5600   27.0500   33.5000 C   0  0  0  0  0  0  0  0  0  0  0  0
   32.2700   27.2400   32.3100 C   0  0  0  0  0  0  0  0  0  0  0  0
   31.6100   27.2500   31.0800 C   0  0  0  0  0  0  0  0  0  0  0  0
   30.2700   26.8700   31.0600 C   0  0  0  0  0  0  0  0  0  0  0  0
   29.5100   26.6900   32.2300 C   0  0  0  0  0  0  0  0  0  0  0  0
   28.1400   26.4100   32.2000 C   0  0  0  0  0  0  0  0  0  0  0  0
   27.4300   26.1300   31.0500 N   0  0  0  0  0  0  0  0  0  0  0  0
   27.5609   24.8055   30.4246 C   0  0  0  0  0  0  0  0  0  0  0  0
   26.6526   24.6773   29.1968 C   0  0  0  0  0  0  0  0  0  0  0  0
   26.7877   25.8684   28.3462 N   0  0  0  0  0  0  0  0  0  0  0  0
   26.8157   25.7302   26.9123 C   0  0  0  0  0  0  0  0  0  0  0  0
   25.8888   24.9000   26.2604 C   0  0  0  0  0  0  0  0  0  0  0  0
   25.9096   24.7561   24.8612 C   0  0  0  0  0  0  0  0  0  0  0  0
   24.9152   23.8347   24.1973 C   0  0  0  0  0  0  0  0  0  0  0  0
   25.5245   22.6097   23.8916 O   0  0  0  0  0  0  0  0  0  0  0  0
   26.8956   25.4335   24.1126 C   0  0  0  0  0  0  0  0  0  0  0  0
   27.0130   25.2610   22.3621 Cl  0  0  0  0  0  0  0  0  0  0  0  0
   27.8157   26.2627   24.7635 C   0  0  0  0  0  0  0  0  0  0  0  0
   27.7747   26.4157   26.1514 C   0  0  0  0  0  0  0  0  0  0  0  0
   26.7803   27.2135   28.9452 C   0  0  0  0  0  0  0  0  0  0  0  0
   26.5605   27.1548   30.4615 C   0  0  0  0  0  0  0  0  0  0  0  0
  1  2  1  0
  2  3  2  0
  2  4  1  0
  4  5  2  0
  5  6  1  0
  6  7  2  0
  7  8  1  0
  8  9  2  0
  9 10  1  0
 10 11  2  0
 11 12  1  0
 12 13  2  0
 13 14  1  0
 14 15  1  0
 15 16  1  0
 16 17  1  0
 17 18  1  0
 18 19  2  0
 19 20  1  0
 20 21  1  0
 21 22  1  0
 20 23  2  0
 23 24  1  0
 23 25  1  0
 25 26  2  0
 17 27  1  0
 27 28  1  0
 13  4  1  0
 28 14  1  0
 12  7  1  0
 26 18  1  0
M  END
>  <AAScore>  (1) 
-2.161652000115677

>  <RootName>  (1) 
./4ZLY/04_DeltaGEst/trajectory_03/rank_01/lead_0252

$$$$
