confid_11
     RDKit          3D

 26 29  0  0  0  0  0  0  0  0999 V2000
   24.2000   26.2400   35.6900 N   0  0  0  0  0  0  0  0  0  0  0  0
   24.8500   26.2800   34.4800 C   0  0  0  0  0  0  0  0  0  0  0  0
   24.3100   25.7400   33.5400 O   0  0  0  0  0  0  0  0  0  0  0  0
   26.1800   26.9700   34.4700 C   0  0  0  0  0  0  0  0  0  0  0  0
   26.6500   27.6000   35.5500 N   0  0  0  0  0  0  0  0  0  0  0  0
   27.7900   28.2700   35.6200 N   0  0  0  0  0  0  0  0  0  0  0  0
   28.5400   28.3000   34.5100 C   0  0  0  0  0  0  0  0  0  0  0  0
   29.7700   28.9400   34.5600 C   0  0  0  0  0  0  0  0  0  0  0  0
   30.7000   28.8900   33.5000 C   0  0  0  0  0  0  0  0  0  0  0  0
   30.3700   28.1400   32.3700 C   0  0  0  0  0  0  0  0  0  0  0  0
   29.1200   27.5200   32.2800 C   0  0  0  0  0  0  0  0  0  0  0  0
   28.2100   27.6100   33.3300 C   0  0  0  0  0  0  0  0  0  0  0  0
   26.9700   26.9700   33.3100 C   0  0  0  0  0  0  0  0  0  0  0  0
   26.5300   26.2400   32.2200 N   0  0  0  0  0  0  0  0  0  0  0  0
   30.1519   29.6843   35.7285 N   0  0  0  0  0  0  0  0  0  0  0  0
   29.5942   30.0662   37.0406 C   0  0  0  0  0  0  0  0  0  0  0  0
   30.7875   30.8480   37.5098 C   0  0  0  0  0  0  0  0  0  0  0  0
   31.3189   30.4787   36.1550 C   0  0  0  0  0  0  0  0  0  0  0  0
   30.5339   32.2983   37.6650 N   0  0  0  0  0  0  0  0  0  0  0  0
   31.8056   33.0335   37.7981 C   0  0  0  0  0  0  0  0  0  0  0  0
   29.6249   32.6001   38.7989 C   0  0  0  0  0  0  0  0  0  0  0  0
   30.1354   32.1260   40.1351 C   0  0  0  0  0  0  0  0  0  0  0  0
   29.9023   30.8788   40.7016 C   0  0  0  0  0  0  0  0  0  0  0  0
   30.4997   30.7233   41.9579 C   0  0  0  0  0  0  0  0  0  0  0  0
   31.1984   31.8448   42.3861 C   0  0  0  0  0  0  0  0  0  0  0  0
   31.0723   33.0305   41.2002 S   0  0  0  0  0  0  0  0  0  0  0  0
  1  2  1  0
  2  3  2  0
  2  4  1  0
  4  5  2  0
  5  6  1  0
  6  7  2  0
  7  8  1  0
  8  9  2  0
  9 10  1  0
 10 11  2  0
 11 12  1  0
 12 13  2  0
 13 14  1  0
  8 15  1  0
 15 16  1  0
 16 17  1  0
 17 18  1  0
 17 19  1  0
 19 20  1  0
 19 21  1  0
 21 22  1  0
 22 23  2  0
 23 24  1  0
 24 25  2  0
 25 26  1  0
 13  4  1  0
 18 15  1  0
 26 22  1  0
 12  7  1  0
M  END
>  <AAScore>  (1) 
-7.08157449736608

>  <RootName>  (1) 
./4ZLY/04_DeltaGEst/trajectory_04/rank_01/lead_0471

$$$$
