confid_2
     RDKit          3D

 27 30  0  0  0  0  0  0  0  0999 V2000
   24.2000   26.2400   35.6900 N   0  0  0  0  0  0  0  0  0  0  0  0
   24.8500   26.2800   34.4800 C   0  0  0  0  0  0  0  0  0  0  0  0
   24.3100   25.7400   33.5400 O   0  0  0  0  0  0  0  0  0  0  0  0
   26.1800   26.9700   34.4700 C   0  0  0  0  0  0  0  0  0  0  0  0
   26.6500   27.6000   35.5500 N   0  0  0  0  0  0  0  0  0  0  0  0
   27.7900   28.2700   35.6200 N   0  0  0  0  0  0  0  0  0  0  0  0
   28.5400   28.3000   34.5100 C   0  0  0  0  0  0  0  0  0  0  0  0
   29.7700   28.9400   34.5600 C   0  0  0  0  0  0  0  0  0  0  0  0
   30.7000   28.8900   33.5000 C   0  0  0  0  0  0  0  0  0  0  0  0
   30.3700   28.1400   32.3700 C   0  0  0  0  0  0  0  0  0  0  0  0
   29.1200   27.5200   32.2800 C   0  0  0  0  0  0  0  0  0  0  0  0
   28.2100   27.6100   33.3300 C   0  0  0  0  0  0  0  0  0  0  0  0
   26.9700   26.9700   33.3100 C   0  0  0  0  0  0  0  0  0  0  0  0
   26.5300   26.2400   32.2200 N   0  0  0  0  0  0  0  0  0  0  0  0
   22.7817   26.0605   35.8492 C   0  0  0  0  0  0  0  0  0  0  0  0
   21.9433   26.1087   34.7807 N   0  0  0  0  0  0  0  0  0  0  0  0
   20.6038   25.9546   34.9310 C   0  0  0  0  0  0  0  0  0  0  0  0
   20.0511   25.7411   36.2037 C   0  0  0  0  0  0  0  0  0  0  0  0
   18.5486   25.5925   36.3595 C   0  0  2  0  0  0  0  0  0  0  0  0
   17.8720   26.8230   36.9799 C   0  0  0  0  0  0  0  0  0  0  0  0
   18.1541   24.3642   37.0564 N   0  0  0  0  0  0  0  0  0  0  0  0
   18.6452   23.7629   38.1052 C   0  0  0  0  0  0  0  0  0  0  0  0
   19.8362   24.1707   38.8125 N   0  0  0  0  0  0  0  0  0  0  0  0
   20.4150   23.1967   39.7427 C   0  0  0  0  0  0  0  0  0  0  0  0
   20.4366   25.5017   38.6889 C   0  0  0  0  0  0  0  0  0  0  0  0
   20.9321   25.7186   37.2972 C   0  0  0  0  0  0  0  0  0  0  0  0
   22.2678   25.8736   37.0920 N   0  0  0  0  0  0  0  0  0  0  0  0
  1  2  1  0
  2  3  2  0
  2  4  1  0
  4  5  2  0
  5  6  1  0
  6  7  2  0
  7  8  1  0
  8  9  2  0
  9 10  1  0
 10 11  2  0
 11 12  1  0
 12 13  2  0
 13 14  1  0
  1 15  1  0
 15 16  2  0
 16 17  1  0
 17 18  2  0
 18 19  1  0
 19 20  1  1
 19 21  1  0
 21 22  2  0
 22 23  1  0
 23 24  1  0
 23 25  1  0
 25 26  1  0
 26 27  2  0
 13  4  1  0
 27 15  1  0
 12  7  1  0
 26 18  1  0
M  END
>  <AAScore>  (1) 
165.01186688348213

>  <RootName>  (1) 
./4ZLY/04_DeltaGEst/trajectory_04/rank_00/lead_0175

$$$$
