confid_11
     RDKit          3D

 28 31  0  0  0  0  0  0  0  0999 V2000
   24.2000   26.2400   35.6900 N   0  0  0  0  0  0  0  0  0  0  0  0
   24.8500   26.2800   34.4800 C   0  0  0  0  0  0  0  0  0  0  0  0
   24.3100   25.7400   33.5400 O   0  0  0  0  0  0  0  0  0  0  0  0
   26.1800   26.9700   34.4700 C   0  0  0  0  0  0  0  0  0  0  0  0
   26.6500   27.6000   35.5500 N   0  0  0  0  0  0  0  0  0  0  0  0
   27.7900   28.2700   35.6200 N   0  0  0  0  0  0  0  0  0  0  0  0
   28.5400   28.3000   34.5100 C   0  0  0  0  0  0  0  0  0  0  0  0
   29.7700   28.9400   34.5600 C   0  0  0  0  0  0  0  0  0  0  0  0
   30.7000   28.8900   33.5000 C   0  0  0  0  0  0  0  0  0  0  0  0
   30.3700   28.1400   32.3700 C   0  0  0  0  0  0  0  0  0  0  0  0
   29.1200   27.5200   32.2800 C   0  0  0  0  0  0  0  0  0  0  0  0
   28.2100   27.6100   33.3300 C   0  0  0  0  0  0  0  0  0  0  0  0
   26.9700   26.9700   33.3100 C   0  0  0  0  0  0  0  0  0  0  0  0
   26.5300   26.2400   32.2200 N   0  0  0  0  0  0  0  0  0  0  0  0
   22.7784   26.0822   35.8476 C   0  0  0  0  0  0  0  0  0  0  0  0
   22.3029   25.4774   36.9667 N   0  0  0  0  0  0  0  0  0  0  0  0
   20.9747   25.3082   37.1906 C   0  0  0  0  0  0  0  0  0  0  0  0
   20.0253   25.7679   36.2644 C   0  0  0  0  0  0  0  0  0  0  0  0
   18.5621   25.4714   36.5633 C   0  0  0  0  0  0  0  0  0  0  0  0
   17.5974   26.1263   35.6534 N   0  0  0  0  0  0  0  0  0  0  0  0
   16.2242   25.7560   36.0330 C   0  0  0  0  0  0  0  0  0  0  0  0
   17.7657   27.5957   35.6491 C   0  0  0  0  0  0  0  0  0  0  0  0
   18.6512   28.0044   34.4683 C   0  0  0  0  0  0  0  0  0  0  0  0
   19.5846   26.9294   34.1053 N   0  0  0  0  0  0  0  0  0  0  0  0
   19.6258   26.3964   32.7357 C   0  0  0  0  0  0  0  0  0  0  0  0
   19.0995   24.9653   32.7028 C   0  0  0  0  0  0  0  0  0  0  0  0
   20.4927   26.4185   35.0958 C   0  0  0  0  0  0  0  0  0  0  0  0
   21.8714   26.5822   34.9019 C   0  0  0  0  0  0  0  0  0  0  0  0
  1  2  1  0
  2  3  2  0
  2  4  1  0
  4  5  2  0
  5  6  1  0
  6  7  2  0
  7  8  1  0
  8  9  2  0
  9 10  1  0
 10 11  2  0
 11 12  1  0
 12 13  2  0
 13 14  1  0
  1 15  1  0
 15 16  2  0
 16 17  1  0
 17 18  2  0
 18 19  1  0
 19 20  1  0
 20 21  1  0
 20 22  1  0
 22 23  1  0
 23 24  1  0
 24 25  1  0
 25 26  1  0
 24 27  1  0
 27 28  2  0
 13  4  1  0
 28 15  1  0
 12  7  1  0
 27 18  1  0
M  END
>  <AAScore>  (1) 
195.5752271969461

>  <RootName>  (1) 
./4ZLY/04_DeltaGEst/trajectory_04/rank_00/lead_0397

$$$$
