confid_2
     RDKit          3D

 27 30  0  0  0  0  0  0  0  0999 V2000
   24.5500   26.3900   36.2500 N   0  0  0  0  0  0  0  0  0  0  0  0
   25.6000   26.1300   35.4000 C   0  0  0  0  0  0  0  0  0  0  0  0
   25.4300   25.4300   34.4200 O   0  0  0  0  0  0  0  0  0  0  0  0
   26.9800   26.6300   35.7100 C   0  0  0  0  0  0  0  0  0  0  0  0
   27.3200   26.8200   36.9800 N   0  0  0  0  0  0  0  0  0  0  0  0
   28.4700   27.4000   37.3100 N   0  0  0  0  0  0  0  0  0  0  0  0
   29.4000   27.6300   36.3700 C   0  0  0  0  0  0  0  0  0  0  0  0
   30.6600   28.0500   36.8000 C   0  0  0  0  0  0  0  0  0  0  0  0
   31.5700   28.3600   35.7800 C   0  0  0  0  0  0  0  0  0  0  0  0
   31.3700   28.1000   34.4300 C   0  0  0  0  0  0  0  0  0  0  0  0
   30.1200   27.5900   34.0500 C   0  0  0  0  0  0  0  0  0  0  0  0
   29.1500   27.3400   35.0300 C   0  0  0  0  0  0  0  0  0  0  0  0
   27.8800   26.8900   34.6600 C   0  0  0  0  0  0  0  0  0  0  0  0
   27.4800   26.6100   33.3700 N   0  0  0  0  0  0  0  0  0  0  0  0
   30.9893   28.3180   38.2169 C   0  0  0  0  0  0  0  0  0  0  0  0
   31.8318   27.4213   38.8892 C   0  0  0  0  0  0  0  0  0  0  0  0
   32.1514   27.6219   40.2346 C   0  0  0  0  0  0  0  0  0  0  0  0
   33.0013   26.7303   40.8874 O   0  0  0  0  0  0  0  0  0  0  0  0
   32.5063   25.5613   41.5319 C   0  0  0  0  0  0  0  0  0  0  0  0
   31.4855   25.9271   42.6080 C   0  0  0  0  0  0  0  0  0  0  0  0
   32.0295   26.9166   43.4639 O   0  0  0  0  0  0  0  0  0  0  0  0
   31.3629   28.1578   43.3275 C   0  0  0  0  0  0  0  0  0  0  0  0
   31.9286   28.9354   42.2724 O   0  0  0  0  0  0  0  0  0  0  0  0
   31.6255   28.7220   40.9248 C   0  0  0  0  0  0  0  0  0  0  0  0
   30.8083   29.6364   40.2535 C   0  0  0  0  0  0  0  0  0  0  0  0
   30.4913   29.4549   38.8967 C   0  0  0  0  0  0  0  0  0  0  0  0
   29.6014   30.4569   38.2090 C   0  0  0  0  0  0  0  0  0  0  0  0
  1  2  1  0
  2  3  2  0
  2  4  1  0
  4  5  2  0
  5  6  1  0
  6  7  2  0
  7  8  1  0
  8  9  2  0
  9 10  1  0
 10 11  2  0
 11 12  1  0
 12 13  2  0
 13 14  1  0
  8 15  1  0
 15 16  2  0
 16 17  1  0
 17 18  1  0
 18 19  1  0
 19 20  1  0
 20 21  1  0
 21 22  1  0
 22 23  1  0
 23 24  1  0
 24 25  1  0
 25 26  2  0
 26 27  1  0
 13  4  1  0
 26 15  1  0
 12  7  1  0
 24 17  2  0
M  END
>  <AAScore>  (1) 
15.439873698290436

>  <RootName>  (1) 
./4ZLY/04_DeltaGEst/trajectory_01/rank_01/lead_0397

$$$$
