confid_15
     RDKit          3D

 27 30  0  0  0  0  0  0  0  0999 V2000
   24.4800   26.1000   36.1300 N   0  0  0  0  0  0  0  0  0  0  0  0
   25.2500   26.2500   34.9900 C   0  0  0  0  0  0  0  0  0  0  0  0
   24.7400   25.7600   33.9900 O   0  0  0  0  0  0  0  0  0  0  0  0
   26.5900   26.8900   34.9600 C   0  0  0  0  0  0  0  0  0  0  0  0
   27.0600   27.2400   36.1600 N   0  0  0  0  0  0  0  0  0  0  0  0
   28.3000   27.7100   36.2400 N   0  0  0  0  0  0  0  0  0  0  0  0
   29.0500   27.9600   35.1500 C   0  0  0  0  0  0  0  0  0  0  0  0
   30.3400   28.4900   35.2600 C   0  0  0  0  0  0  0  0  0  0  0  0
   31.1100   28.8200   34.1400 C   0  0  0  0  0  0  0  0  0  0  0  0
   30.5200   28.6700   32.8800 C   0  0  0  0  0  0  0  0  0  0  0  0
   29.2900   28.0200   32.7700 C   0  0  0  0  0  0  0  0  0  0  0  0
   28.5200   27.7100   33.8900 C   0  0  0  0  0  0  0  0  0  0  0  0
   27.2700   27.0800   33.7600 C   0  0  0  0  0  0  0  0  0  0  0  0
   26.7500   26.8800   32.4900 N   0  0  0  0  0  0  0  0  0  0  0  0
   23.3327   25.2422   36.2702 C   0  0  0  0  0  0  0  0  0  0  0  0
   22.3052   25.6497   37.0589 N   0  0  0  0  0  0  0  0  0  0  0  0
   21.1883   24.9005   37.2373 C   0  0  0  0  0  0  0  0  0  0  0  0
   21.0502   23.6523   36.6093 C   0  0  0  0  0  0  0  0  0  0  0  0
   19.7293   22.9271   36.8140 C   0  0  0  0  0  0  0  0  0  0  0  0
   19.5757   21.8005   35.9701 O   0  0  0  0  0  0  0  0  0  0  0  0
   19.8241   20.5935   36.6695 C   0  0  0  0  0  0  0  0  0  0  0  0
   21.3027   20.4392   37.0680 C   0  0  0  0  0  0  0  0  0  0  0  0
   22.2523   20.5635   35.8685 C   0  0  0  0  0  0  0  0  0  0  0  0
   22.1264   21.8708   35.1289 C   0  0  0  0  0  0  0  0  0  0  0  0
   22.1043   21.8607   33.8677 O   0  0  0  0  0  0  0  0  0  0  0  0
   22.1389   23.1708   35.8302 C   0  0  0  0  0  0  0  0  0  0  0  0
   23.2755   23.9761   35.6695 C   0  0  0  0  0  0  0  0  0  0  0  0
  1  2  1  0
  2  3  2  0
  2  4  1  0
  4  5  2  0
  5  6  1  0
  6  7  2  0
  7  8  1  0
  8  9  2  0
  9 10  1  0
 10 11  2  0
 11 12  1  0
 12 13  2  0
 13 14  1  0
  1 15  1  0
 15 16  2  0
 16 17  1  0
 17 18  2  0
 18 19  1  0
 19 20  1  0
 20 21  1  0
 21 22  1  0
 22 23  1  0
 23 24  1  0
 24 25  2  0
 24 26  1  0
 26 27  2  0
 13  4  1  0
 27 15  1  0
 12  7  1  0
 26 18  1  0
M  END
>  <AAScore>  (1) 
1563.3976343217018

>  <RootName>  (1) 
./4ZLY/04_DeltaGEst/trajectory_00/rank_01/lead_0412

$$$$
