confid_1
     RDKit          3D

 28 31  0  0  0  0  0  0  0  0999 V2000
   24.2000   26.2400   35.6900 N   0  0  0  0  0  0  0  0  0  0  0  0
   24.8500   26.2800   34.4800 C   0  0  0  0  0  0  0  0  0  0  0  0
   24.3100   25.7400   33.5400 O   0  0  0  0  0  0  0  0  0  0  0  0
   26.1800   26.9700   34.4700 C   0  0  0  0  0  0  0  0  0  0  0  0
   26.6500   27.6000   35.5500 N   0  0  0  0  0  0  0  0  0  0  0  0
   27.7900   28.2700   35.6200 N   0  0  0  0  0  0  0  0  0  0  0  0
   28.5400   28.3000   34.5100 C   0  0  0  0  0  0  0  0  0  0  0  0
   29.7700   28.9400   34.5600 C   0  0  0  0  0  0  0  0  0  0  0  0
   30.7000   28.8900   33.5000 C   0  0  0  0  0  0  0  0  0  0  0  0
   30.3700   28.1400   32.3700 C   0  0  0  0  0  0  0  0  0  0  0  0
   29.1200   27.5200   32.2800 C   0  0  0  0  0  0  0  0  0  0  0  0
   28.2100   27.6100   33.3300 C   0  0  0  0  0  0  0  0  0  0  0  0
   26.9700   26.9700   33.3100 C   0  0  0  0  0  0  0  0  0  0  0  0
   26.5300   26.2400   32.2200 N   0  0  0  0  0  0  0  0  0  0  0  0
   30.1418   29.6745   35.7387 N   0  0  0  0  0  0  0  0  0  0  0  0
   30.8488   28.9567   36.8057 C   0  0  0  0  0  0  0  0  0  0  0  0
   31.7913   29.9034   37.5430 C   0  0  0  0  0  0  0  0  0  0  0  0
   31.0470   31.0770   38.0165 N   0  0  0  0  0  0  0  0  0  0  0  0
   31.1967   31.5353   39.4021 C   0  0  0  0  0  0  0  0  0  0  0  0
   30.1416   31.7337   37.0998 C   0  0  0  0  0  0  0  0  0  0  0  0
   29.6979   33.0504   37.3233 C   0  0  0  0  0  0  0  0  0  0  0  0
   28.8378   33.6735   36.4178 C   0  0  0  0  0  0  0  0  0  0  0  0
   28.4273   34.9456   36.6526 F   0  0  0  0  0  0  0  0  0  0  0  0
   28.4024   33.0001   35.2734 C   0  0  0  0  0  0  0  0  0  0  0  0
   28.8403   31.6834   35.0411 C   0  0  0  0  0  0  0  0  0  0  0  0
   29.7013   31.0386   35.9523 C   0  0  0  0  0  0  0  0  0  0  0  0
   27.5362   33.6691   34.3949 O   0  0  0  0  0  0  0  0  0  0  0  0
   27.0040   33.1038   33.2011 C   0  0  0  0  0  0  0  0  0  0  0  0
  1  2  1  0
  2  3  2  0
  2  4  1  0
  4  5  2  0
  5  6  1  0
  6  7  2  0
  7  8  1  0
  8  9  2  0
  9 10  1  0
 10 11  2  0
 11 12  1  0
 12 13  2  0
 13 14  1  0
  8 15  1  0
 15 16  1  0
 16 17  1  0
 17 18  1  0
 18 19  1  0
 18 20  1  0
 20 21  2  0
 21 22  1  0
 22 23  1  0
 22 24  2  0
 24 25  1  0
 25 26  2  0
 24 27  1  0
 27 28  1  0
 13  4  1  0
 26 15  1  0
 12  7  1  0
 26 20  1  0
M  END
>  <AAScore>  (1) 
222.92512586610675

>  <RootName>  (1) 
./4ZLY/04_DeltaGEst/trajectory_04/rank_01/lead_0260

$$$$
