confid_2
     RDKit          3D

 28 31  0  0  0  0  0  0  0  0999 V2000
   25.3300   26.2600   34.7600 N   0  0  0  0  0  0  0  0  0  0  0  0
   26.1200   25.9200   33.6900 C   0  0  0  0  0  0  0  0  0  0  0  0
   25.6300   25.1100   32.9400 O   0  0  0  0  0  0  0  0  0  0  0  0
   27.5200   26.3800   33.4600 C   0  0  0  0  0  0  0  0  0  0  0  0
   28.1600   26.6300   34.6100 N   0  0  0  0  0  0  0  0  0  0  0  0
   29.4800   26.8500   34.5700 N   0  0  0  0  0  0  0  0  0  0  0  0
   30.1900   26.7800   33.4400 C   0  0  0  0  0  0  0  0  0  0  0  0
   31.5600   27.0500   33.5000 C   0  0  0  0  0  0  0  0  0  0  0  0
   32.2700   27.2400   32.3100 C   0  0  0  0  0  0  0  0  0  0  0  0
   31.6100   27.2500   31.0800 C   0  0  0  0  0  0  0  0  0  0  0  0
   30.2700   26.8700   31.0600 C   0  0  0  0  0  0  0  0  0  0  0  0
   29.5100   26.6900   32.2300 C   0  0  0  0  0  0  0  0  0  0  0  0
   28.1400   26.4100   32.2000 C   0  0  0  0  0  0  0  0  0  0  0  0
   27.4300   26.1300   31.0500 N   0  0  0  0  0  0  0  0  0  0  0  0
   24.1711   25.5337   35.2231 C   0  0  0  0  0  0  0  0  0  0  0  0
   23.9272   24.2695   34.7892 N   0  0  0  0  0  0  0  0  0  0  0  0
   22.8625   23.5475   35.2175 C   0  0  0  0  0  0  0  0  0  0  0  0
   21.9582   24.0782   36.1512 C   0  0  0  0  0  0  0  0  0  0  0  0
   20.7548   23.2054   36.4919 C   0  0  0  0  0  0  0  0  0  0  0  0
   19.9007   23.7099   37.5860 N   0  0  0  0  0  0  0  0  0  0  0  0
   18.7838   22.7795   37.8181 C   0  0  0  0  0  0  0  0  0  0  0  0
   20.6780   23.9217   38.8245 C   0  0  0  0  0  0  0  0  0  0  0  0
   21.0090   25.4055   38.9582 C   0  0  0  0  0  0  0  0  0  0  0  0
   21.3211   26.0494   37.6357 C   0  0  0  0  0  0  0  0  0  0  0  0
   20.9007   27.2171   37.4138 O   0  0  0  0  0  0  0  0  0  0  0  0
   22.1934   25.3937   36.6372 C   0  0  0  0  0  0  0  0  0  0  0  0
   23.3049   26.1140   36.1598 C   0  0  0  0  0  0  0  0  0  0  0  0
   23.5542   27.3689   36.6188 F   0  0  0  0  0  0  0  0  0  0  0  0
  1  2  1  0
  2  3  2  0
  2  4  1  0
  4  5  2  0
  5  6  1  0
  6  7  2  0
  7  8  1  0
  8  9  2  0
  9 10  1  0
 10 11  2  0
 11 12  1  0
 12 13  2  0
 13 14  1  0
  1 15  1  0
 15 16  2  0
 16 17  1  0
 17 18  2  0
 18 19  1  0
 19 20  1  0
 20 21  1  0
 20 22  1  0
 22 23  1  0
 23 24  1  0
 24 25  2  0
 24 26  1  0
 26 27  2  0
 27 28  1  0
 13  4  1  0
 27 15  1  0
 12  7  1  0
 26 18  1  0
M  END
>  <AAScore>  (1) 
9139.930779884842

>  <RootName>  (1) 
./4ZLY/04_DeltaGEst/trajectory_03/rank_00/lead_0312

$$$$
