confid_6
     RDKit          3D

 27 29  0  0  0  0  0  0  0  0999 V2000
   24.4800   26.1000   36.1300 N   0  0  0  0  0  0  0  0  0  0  0  0
   25.2500   26.2500   34.9900 C   0  0  0  0  0  0  0  0  0  0  0  0
   24.7400   25.7600   33.9900 O   0  0  0  0  0  0  0  0  0  0  0  0
   26.5900   26.8900   34.9600 C   0  0  0  0  0  0  0  0  0  0  0  0
   27.0600   27.2400   36.1600 N   0  0  0  0  0  0  0  0  0  0  0  0
   28.3000   27.7100   36.2400 N   0  0  0  0  0  0  0  0  0  0  0  0
   29.0500   27.9600   35.1500 C   0  0  0  0  0  0  0  0  0  0  0  0
   30.3400   28.4900   35.2600 C   0  0  0  0  0  0  0  0  0  0  0  0
   31.1100   28.8200   34.1400 C   0  0  0  0  0  0  0  0  0  0  0  0
   30.5200   28.6700   32.8800 C   0  0  0  0  0  0  0  0  0  0  0  0
   29.2900   28.0200   32.7700 C   0  0  0  0  0  0  0  0  0  0  0  0
   28.5200   27.7100   33.8900 C   0  0  0  0  0  0  0  0  0  0  0  0
   27.2700   27.0800   33.7600 C   0  0  0  0  0  0  0  0  0  0  0  0
   26.7500   26.8800   32.4900 N   0  0  0  0  0  0  0  0  0  0  0  0
   23.4870   25.0753   36.3390 C   0  0  0  0  0  0  0  0  0  0  0  0
   22.6283   25.1522   37.4429 C   0  0  0  0  0  0  0  0  0  0  0  0
   21.6802   24.1311   37.6486 C   0  0  0  0  0  0  0  0  0  0  0  0
   20.7537   24.1438   38.7652 N   0  0  0  0  0  0  0  0  0  0  0  0
   19.8820   22.9798   38.9663 C   0  0  0  0  0  0  0  0  0  0  0  0
   20.6419   25.2763   39.7009 C   0  0  0  0  0  0  0  0  0  0  0  0
   21.5926   25.1091   40.8891 C   0  0  0  0  0  0  0  0  0  0  0  0
   22.9012   24.9965   40.4582 F   0  0  0  0  0  0  0  0  0  0  0  0
   21.2559   23.9761   41.6075 F   0  0  0  0  0  0  0  0  0  0  0  0
   21.4880   26.2108   41.7180 F   0  0  0  0  0  0  0  0  0  0  0  0
   21.6411   23.0954   36.7638 N   0  0  0  0  0  0  0  0  0  0  0  0
   22.4837   23.0288   35.7027 C   0  0  0  0  0  0  0  0  0  0  0  0
   23.3976   24.0093   35.4986 N   0  0  0  0  0  0  0  0  0  0  0  0
  1  2  1  0
  2  3  2  0
  2  4  1  0
  4  5  2  0
  5  6  1  0
  6  7  2  0
  7  8  1  0
  8  9  2  0
  9 10  1  0
 10 11  2  0
 11 12  1  0
 12 13  2  0
 13 14  1  0
  1 15  1  0
 15 16  2  0
 16 17  1  0
 17 18  1  0
 18 19  1  0
 18 20  1  0
 20 21  1  0
 21 22  1  0
 21 23  1  0
 21 24  1  0
 17 25  2  0
 25 26  1  0
 26 27  2  0
 13  4  1  0
 27 15  1  0
 12  7  1  0
M  END
>  <AAScore>  (1) 
1544.538099944558

>  <RootName>  (1) 
./4ZLY/04_DeltaGEst/trajectory_00/rank_00/lead_0067

$$$$
