confid_11
     RDKit          3D

 28 31  0  0  0  0  0  0  0  0999 V2000
   24.5700   26.8800   35.5900 N   0  0  0  0  0  0  0  0  0  0  0  0
   25.5000   26.4000   34.6900 C   0  0  0  0  0  0  0  0  0  0  0  0
   25.1700   25.5200   33.9100 O   0  0  0  0  0  0  0  0  0  0  0  0
   26.8400   27.0200   34.7400 C   0  0  0  0  0  0  0  0  0  0  0  0
   27.3800   27.2800   35.9400 N   0  0  0  0  0  0  0  0  0  0  0  0
   28.6200   27.7400   36.0300 N   0  0  0  0  0  0  0  0  0  0  0  0
   29.3800   28.0000   34.9600 C   0  0  0  0  0  0  0  0  0  0  0  0
   30.6700   28.5000   35.1300 C   0  0  0  0  0  0  0  0  0  0  0  0
   31.5400   28.6100   34.0300 C   0  0  0  0  0  0  0  0  0  0  0  0
   31.0900   28.2200   32.7700 C   0  0  0  0  0  0  0  0  0  0  0  0
   29.8000   27.7000   32.6000 C   0  0  0  0  0  0  0  0  0  0  0  0
   28.9600   27.5500   33.7100 C   0  0  0  0  0  0  0  0  0  0  0  0
   27.6600   27.0300   33.5900 C   0  0  0  0  0  0  0  0  0  0  0  0
   27.1600   26.7400   32.3400 N   0  0  0  0  0  0  0  0  0  0  0  0
   23.3036   26.2517   35.8817 C   0  0  0  0  0  0  0  0  0  0  0  0
   23.0017   25.0290   35.3670 N   0  0  0  0  0  0  0  0  0  0  0  0
   21.8272   24.4017   35.6256 C   0  0  0  0  0  0  0  0  0  0  0  0
   20.8702   25.0009   36.4562 C   0  0  0  0  0  0  0  0  0  0  0  0
   19.5937   24.2614   36.7830 C   0  0  0  0  0  0  0  0  0  0  0  0
   18.4249   24.8386   36.0832 N   0  0  0  0  0  0  0  0  0  0  0  0
   17.1956   24.1392   36.4935 C   0  0  0  0  0  0  0  0  0  0  0  0
   18.2783   26.3100   36.2275 C   0  0  0  0  0  0  0  0  0  0  0  0
   18.6465   26.8480   37.6260 C   0  0  0  0  0  0  0  0  0  0  0  0
   20.1347   26.9854   37.8409 C   0  0  0  0  0  0  0  0  0  0  0  0
   20.5302   27.7264   38.7815 O   0  0  0  0  0  0  0  0  0  0  0  0
   21.1395   26.2767   37.0005 C   0  0  0  0  0  0  0  0  0  0  0  0
   22.3729   26.8943   36.7149 C   0  0  0  0  0  0  0  0  0  0  0  0
   22.6531   28.1283   37.2108 F   0  0  0  0  0  0  0  0  0  0  0  0
  1  2  1  0
  2  3  2  0
  2  4  1  0
  4  5  2  0
  5  6  1  0
  6  7  2  0
  7  8  1  0
  8  9  2  0
  9 10  1  0
 10 11  2  0
 11 12  1  0
 12 13  2  0
 13 14  1  0
  1 15  1  0
 15 16  2  0
 16 17  1  0
 17 18  2  0
 18 19  1  0
 19 20  1  0
 20 21  1  0
 20 22  1  0
 22 23  1  0
 23 24  1  0
 24 25  2  0
 24 26  1  0
 26 27  2  0
 27 28  1  0
 13  4  1  0
 27 15  1  0
 12  7  1  0
 26 18  1  0
M  END
>  <AAScore>  (1) 
38068.50659394806

>  <RootName>  (1) 
./4ZLY/04_DeltaGEst/trajectory_05/rank_00/lead_0338

$$$$
