confid_19
     RDKit          3D

 30 33  0  0  0  0  0  0  0  0999 V2000
   24.2000   26.2400   35.6900 N   0  0  0  0  0  0  0  0  0  0  0  0
   24.8500   26.2800   34.4800 C   0  0  0  0  0  0  0  0  0  0  0  0
   24.3100   25.7400   33.5400 O   0  0  0  0  0  0  0  0  0  0  0  0
   26.1800   26.9700   34.4700 C   0  0  0  0  0  0  0  0  0  0  0  0
   26.6500   27.6000   35.5500 N   0  0  0  0  0  0  0  0  0  0  0  0
   27.7900   28.2700   35.6200 N   0  0  0  0  0  0  0  0  0  0  0  0
   28.5400   28.3000   34.5100 C   0  0  0  0  0  0  0  0  0  0  0  0
   29.7700   28.9400   34.5600 C   0  0  0  0  0  0  0  0  0  0  0  0
   30.7000   28.8900   33.5000 C   0  0  0  0  0  0  0  0  0  0  0  0
   30.3700   28.1400   32.3700 C   0  0  0  0  0  0  0  0  0  0  0  0
   29.1200   27.5200   32.2800 C   0  0  0  0  0  0  0  0  0  0  0  0
   28.2100   27.6100   33.3300 C   0  0  0  0  0  0  0  0  0  0  0  0
   26.9700   26.9700   33.3100 C   0  0  0  0  0  0  0  0  0  0  0  0
   26.5300   26.2400   32.2200 N   0  0  0  0  0  0  0  0  0  0  0  0
   22.8185   25.8763   35.8694 C   0  0  0  0  0  0  0  0  0  0  0  0
   22.4522   25.2216   37.0046 N   0  0  0  0  0  0  0  0  0  0  0  0
   21.1766   24.8232   37.2349 C   0  0  0  0  0  0  0  0  0  0  0  0
   20.1797   25.0752   36.2849 C   0  0  0  0  0  0  0  0  0  0  0  0
   18.7761   24.5516   36.4861 C   0  0  0  0  0  0  0  0  0  0  0  0
   18.3720   23.4773   35.4521 C   0  0  0  0  0  0  0  0  0  0  0  0
   19.1038   23.5756   34.1764 N   0  0  0  0  0  0  0  0  0  0  0  0
   19.5256   22.3557   33.5410 C   0  0  0  0  0  0  0  0  0  0  0  0
   19.0375   22.0460   32.4187 O   0  0  0  0  0  0  0  0  0  0  0  0
   20.5078   21.5000   34.1568 N   0  0  0  0  0  0  0  0  0  0  0  0
   20.6967   20.1448   33.6415 C   0  0  0  0  0  0  0  0  0  0  0  0
   21.4185   22.0282   35.1741 C   0  0  0  0  0  0  0  0  0  0  0  0
   19.0156   24.7876   33.3406 C   0  0  0  0  0  0  0  0  0  0  0  0
   19.4641   26.0697   34.0690 C   0  0  0  0  0  0  0  0  0  0  0  0
   20.5145   25.7958   35.1195 C   0  0  0  0  0  0  0  0  0  0  0  0
   21.8376   26.2007   34.9151 C   0  0  0  0  0  0  0  0  0  0  0  0
  1  2  1  0
  2  3  2  0
  2  4  1  0
  4  5  2  0
  5  6  1  0
  6  7  2  0
  7  8  1  0
  8  9  2  0
  9 10  1  0
 10 11  2  0
 11 12  1  0
 12 13  2  0
 13 14  1  0
  1 15  1  0
 15 16  2  0
 16 17  1  0
 17 18  2  0
 18 19  1  0
 19 20  1  0
 20 21  1  0
 21 22  1  0
 22 23  2  0
 22 24  1  0
 24 25  1  0
 24 26  1  0
 21 27  1  0
 27 28  1  0
 28 29  1  0
 29 30  2  0
 13  4  1  0
 30 15  1  0
 12  7  1  0
 29 18  1  0
M  END
>  <AAScore>  (1) 
3908.800743184236

>  <RootName>  (1) 
./4ZLY/04_DeltaGEst/trajectory_04/rank_00/lead_0482

$$$$
