confid_10
     RDKit          3D

 28 31  0  0  0  0  0  0  0  0999 V2000
   25.3300   26.2600   34.7600 N   0  0  0  0  0  0  0  0  0  0  0  0
   26.1200   25.9200   33.6900 C   0  0  0  0  0  0  0  0  0  0  0  0
   25.6300   25.1100   32.9400 O   0  0  0  0  0  0  0  0  0  0  0  0
   27.5200   26.3800   33.4600 C   0  0  0  0  0  0  0  0  0  0  0  0
   28.1600   26.6300   34.6100 N   0  0  0  0  0  0  0  0  0  0  0  0
   29.4800   26.8500   34.5700 N   0  0  0  0  0  0  0  0  0  0  0  0
   30.1900   26.7800   33.4400 C   0  0  0  0  0  0  0  0  0  0  0  0
   31.5600   27.0500   33.5000 C   0  0  0  0  0  0  0  0  0  0  0  0
   32.2700   27.2400   32.3100 C   0  0  0  0  0  0  0  0  0  0  0  0
   31.6100   27.2500   31.0800 C   0  0  0  0  0  0  0  0  0  0  0  0
   30.2700   26.8700   31.0600 C   0  0  0  0  0  0  0  0  0  0  0  0
   29.5100   26.6900   32.2300 C   0  0  0  0  0  0  0  0  0  0  0  0
   28.1400   26.4100   32.2000 C   0  0  0  0  0  0  0  0  0  0  0  0
   27.4300   26.1300   31.0500 N   0  0  0  0  0  0  0  0  0  0  0  0
   26.6089   27.1708   30.4278 C   0  0  0  0  0  0  0  0  0  0  0  0
   26.5413   26.9357   28.9164 C   0  0  0  0  0  0  0  0  0  0  0  0
   25.9926   25.5998   28.5786 N   0  0  0  0  0  0  0  0  0  0  0  0
   26.3542   25.2306   27.1950 C   0  0  0  0  0  0  0  0  0  0  0  0
   25.3923   24.2101   26.6582 C   0  0  0  0  0  0  0  0  0  0  0  0
   24.0612   24.4148   26.5837 N   0  0  0  0  0  0  0  0  0  0  0  0
   23.5126   23.3193   26.0803 N   0  0  0  0  0  0  0  0  0  0  0  0
   22.0784   23.1739   25.8525 C   0  0  0  0  0  0  0  0  0  0  0  0
   24.4707   22.3975   25.8369 C   0  0  0  0  0  0  0  0  0  0  0  0
   24.2401   21.0419   25.2355 C   0  0  0  0  0  0  0  0  0  0  0  0
   25.6973   22.9468   26.1717 C   0  0  0  0  0  0  0  0  0  0  0  0
   27.0465   22.2985   26.0960 C   0  0  0  0  0  0  0  0  0  0  0  0
   26.3308   24.5230   29.5505 C   0  0  0  0  0  0  0  0  0  0  0  0
   27.5767   24.8274   30.3933 C   0  0  0  0  0  0  0  0  0  0  0  0
  1  2  1  0
  2  3  2  0
  2  4  1  0
  4  5  2  0
  5  6  1  0
  6  7  2  0
  7  8  1  0
  8  9  2  0
  9 10  1  0
 10 11  2  0
 11 12  1  0
 12 13  2  0
 13 14  1  0
 14 15  1  0
 15 16  1  0
 16 17  1  0
 17 18  1  0
 18 19  1  0
 19 20  2  0
 20 21  1  0
 21 22  1  0
 21 23  1  0
 23 24  1  0
 23 25  2  0
 25 26  1  0
 17 27  1  0
 27 28  1  0
 13  4  1  0
 28 14  1  0
 12  7  1  0
 25 19  1  0
M  END
>  <AAScore>  (1) 
18.695942566261675

>  <RootName>  (1) 
./4ZLY/04_DeltaGEst/trajectory_03/rank_01/lead_0214

$$$$
