confid_7
     RDKit          3D

 28 31  0  0  0  0  0  0  0  0999 V2000
   24.6900   26.1200   35.5300 N   0  0  0  0  0  0  0  0  0  0  0  0
   25.6600   25.6700   34.6600 C   0  0  0  0  0  0  0  0  0  0  0  0
   25.2400   25.0100   33.7200 O   0  0  0  0  0  0  0  0  0  0  0  0
   27.0300   26.2200   34.8800 C   0  0  0  0  0  0  0  0  0  0  0  0
   27.3500   26.7300   36.0700 N   0  0  0  0  0  0  0  0  0  0  0  0
   28.5700   27.1800   36.3300 N   0  0  0  0  0  0  0  0  0  0  0  0
   29.5300   27.1100   35.3900 C   0  0  0  0  0  0  0  0  0  0  0  0
   30.8300   27.5700   35.6500 C   0  0  0  0  0  0  0  0  0  0  0  0
   31.8500   27.5400   34.6900 C   0  0  0  0  0  0  0  0  0  0  0  0
   31.5100   27.1200   33.4000 C   0  0  0  0  0  0  0  0  0  0  0  0
   30.2200   26.6300   33.1100 C   0  0  0  0  0  0  0  0  0  0  0  0
   29.2400   26.6600   34.1000 C   0  0  0  0  0  0  0  0  0  0  0  0
   27.9300   26.2600   33.8100 C   0  0  0  0  0  0  0  0  0  0  0  0
   27.5200   25.7100   32.6100 N   0  0  0  0  0  0  0  0  0  0  0  0
   23.3276   26.4064   35.1637 C   0  0  0  0  0  0  0  0  0  0  0  0
   22.3549   26.2794   36.0999 N   0  0  0  0  0  0  0  0  0  0  0  0
   21.0526   26.5421   35.8281 C   0  0  0  0  0  0  0  0  0  0  0  0
   20.6483   26.9689   34.5569 C   0  0  0  0  0  0  0  0  0  0  0  0
   19.2568   27.1502   34.3974 O   0  0  0  0  0  0  0  0  0  0  0  0
   18.5217   27.6099   33.2634 C   0  0  0  0  0  0  0  0  0  0  0  0
   18.4313   26.5545   32.1520 C   0  0  0  0  0  0  0  0  0  0  0  0
   19.6903   25.7955   32.0051 N   0  0  0  0  0  0  0  0  0  0  0  0
   19.4734   24.4421   31.4429 C   0  0  0  0  0  0  0  0  0  0  0  0
   18.9037   24.4473   30.0175 C   0  0  0  0  0  0  0  0  0  0  0  0
   20.7345   26.5458   31.2752 C   0  0  0  0  0  0  0  0  0  0  0  0
   21.3749   27.6337   32.1470 C   0  0  0  0  0  0  0  0  0  0  0  0
   21.6523   27.1599   33.5581 C   0  0  0  0  0  0  0  0  0  0  0  0
   22.9898   26.8655   33.8829 C   0  0  0  0  0  0  0  0  0  0  0  0
  1  2  1  0
  2  3  2  0
  2  4  1  0
  4  5  2  0
  5  6  1  0
  6  7  2  0
  7  8  1  0
  8  9  2  0
  9 10  1  0
 10 11  2  0
 11 12  1  0
 12 13  2  0
 13 14  1  0
  1 15  1  0
 15 16  2  0
 16 17  1  0
 17 18  2  0
 18 19  1  0
 19 20  1  0
 20 21  1  0
 21 22  1  0
 22 23  1  0
 23 24  1  0
 22 25  1  0
 25 26  1  0
 26 27  1  0
 27 28  2  0
 13  4  1  0
 28 15  1  0
 12  7  1  0
 27 18  1  0
M  END
>  <AAScore>  (1) 
3181.0696141091844

>  <RootName>  (1) 
./4ZLY/04_DeltaGEst/trajectory_02/rank_00/lead_0456

$$$$
