confid_11
     RDKit          3D

 29 32  0  0  0  0  0  0  0  0999 V2000
   24.5500   26.3900   36.2500 N   0  0  0  0  0  0  0  0  0  0  0  0
   25.6000   26.1300   35.4000 C   0  0  0  0  0  0  0  0  0  0  0  0
   25.4300   25.4300   34.4200 O   0  0  0  0  0  0  0  0  0  0  0  0
   26.9800   26.6300   35.7100 C   0  0  0  0  0  0  0  0  0  0  0  0
   27.3200   26.8200   36.9800 N   0  0  0  0  0  0  0  0  0  0  0  0
   28.4700   27.4000   37.3100 N   0  0  0  0  0  0  0  0  0  0  0  0
   29.4000   27.6300   36.3700 C   0  0  0  0  0  0  0  0  0  0  0  0
   30.6600   28.0500   36.8000 C   0  0  0  0  0  0  0  0  0  0  0  0
   31.5700   28.3600   35.7800 C   0  0  0  0  0  0  0  0  0  0  0  0
   31.3700   28.1000   34.4300 C   0  0  0  0  0  0  0  0  0  0  0  0
   30.1200   27.5900   34.0500 C   0  0  0  0  0  0  0  0  0  0  0  0
   29.1500   27.3400   35.0300 C   0  0  0  0  0  0  0  0  0  0  0  0
   27.8800   26.8900   34.6600 C   0  0  0  0  0  0  0  0  0  0  0  0
   27.4800   26.6100   33.3700 N   0  0  0  0  0  0  0  0  0  0  0  0
   31.0136   28.2962   38.2176 C   0  0  0  0  0  0  0  0  0  0  0  0
   32.2270   27.9952   38.8136 C   0  0  0  0  0  0  0  0  0  0  0  0
   32.1068   28.3827   40.1340 C   0  0  0  0  0  0  0  0  0  0  0  0
   33.1044   28.1329   41.2199 C   0  0  0  0  0  0  0  0  0  0  0  0
   32.5921   27.0447   42.1727 C   0  0  0  0  0  0  0  0  0  0  0  0
   31.1540   27.1808   42.4692 N   0  0  0  0  0  0  0  0  0  0  0  0
   30.4187   25.9922   42.8157 C   0  0  0  0  0  0  0  0  0  0  0  0
   30.9831   25.0947   43.5010 O   0  0  0  0  0  0  0  0  0  0  0  0
   29.0525   25.8120   42.3976 N   0  0  0  0  0  0  0  0  0  0  0  0
   28.5786   26.4123   41.1489 C   0  0  0  0  0  0  0  0  0  0  0  0
   28.2004   24.8684   43.1245 C   0  0  0  0  0  0  0  0  0  0  0  0
   30.5990   28.4943   42.8389 C   0  0  0  0  0  0  0  0  0  0  0  0
   30.3885   29.4410   41.6306 C   0  0  0  0  0  0  0  0  0  0  0  0
   30.8795   28.8887   40.3648 N   0  0  0  0  0  0  0  0  0  0  0  0
   30.2115   28.8618   39.1956 C   0  0  0  0  0  0  0  0  0  0  0  0
  1  2  1  0
  2  3  2  0
  2  4  1  0
  4  5  2  0
  5  6  1  0
  6  7  2  0
  7  8  1  0
  8  9  2  0
  9 10  1  0
 10 11  2  0
 11 12  1  0
 12 13  2  0
 13 14  1  0
  8 15  1  0
 15 16  1  0
 16 17  2  0
 17 18  1  0
 18 19  1  0
 19 20  1  0
 20 21  1  0
 21 22  2  0
 21 23  1  0
 23 24  1  0
 23 25  1  0
 20 26  1  0
 26 27  1  0
 27 28  1  0
 28 29  1  0
 13  4  1  0
 29 15  2  0
 12  7  1  0
 28 17  1  0
M  END
>  <AAScore>  (1) 
258.9349935336377

>  <RootName>  (1) 
./4ZLY/04_DeltaGEst/trajectory_01/rank_01/lead_0249

$$$$
