confid_6
     RDKit          3D

 29 32  0  0  0  0  0  0  0  0999 V2000
   24.6900   26.1200   35.5300 N   0  0  0  0  0  0  0  0  0  0  0  0
   25.6600   25.6700   34.6600 C   0  0  0  0  0  0  0  0  0  0  0  0
   25.2400   25.0100   33.7200 O   0  0  0  0  0  0  0  0  0  0  0  0
   27.0300   26.2200   34.8800 C   0  0  0  0  0  0  0  0  0  0  0  0
   27.3500   26.7300   36.0700 N   0  0  0  0  0  0  0  0  0  0  0  0
   28.5700   27.1800   36.3300 N   0  0  0  0  0  0  0  0  0  0  0  0
   29.5300   27.1100   35.3900 C   0  0  0  0  0  0  0  0  0  0  0  0
   30.8300   27.5700   35.6500 C   0  0  0  0  0  0  0  0  0  0  0  0
   31.8500   27.5400   34.6900 C   0  0  0  0  0  0  0  0  0  0  0  0
   31.5100   27.1200   33.4000 C   0  0  0  0  0  0  0  0  0  0  0  0
   30.2200   26.6300   33.1100 C   0  0  0  0  0  0  0  0  0  0  0  0
   29.2400   26.6600   34.1000 C   0  0  0  0  0  0  0  0  0  0  0  0
   27.9300   26.2600   33.8100 C   0  0  0  0  0  0  0  0  0  0  0  0
   27.5200   25.7100   32.6100 N   0  0  0  0  0  0  0  0  0  0  0  0
   31.1456   28.0698   36.9586 N   0  0  0  0  0  0  0  0  0  0  0  0
   30.6364   29.3786   37.3854 C   0  0  0  0  0  0  0  0  0  0  0  0
   30.0907   29.2882   38.8155 C   0  0  0  0  0  0  0  0  0  0  0  0
   30.9846   28.5099   39.6871 N   0  0  0  0  0  0  0  0  0  0  0  0
   30.5401   28.1402   41.0031 C   0  0  0  0  0  0  0  0  0  0  0  0
   30.3925   26.7841   41.3377 C   0  0  0  0  0  0  0  0  0  0  0  0
   29.9479   26.4149   42.6109 C   0  0  0  0  0  0  0  0  0  0  0  0
   29.8046   25.1030   42.9226 F   0  0  0  0  0  0  0  0  0  0  0  0
   29.6489   27.3976   43.5596 C   0  0  0  0  0  0  0  0  0  0  0  0
   29.2184   27.0416   44.7953 F   0  0  0  0  0  0  0  0  0  0  0  0
   29.7965   28.7493   43.2355 C   0  0  0  0  0  0  0  0  0  0  0  0
   30.2401   29.1235   41.9626 C   0  0  0  0  0  0  0  0  0  0  0  0
   30.4070   30.4393   41.6794 F   0  0  0  0  0  0  0  0  0  0  0  0
   32.2599   27.9979   39.1698 C   0  0  0  0  0  0  0  0  0  0  0  0
   32.0301   27.2871   37.8329 C   0  0  0  0  0  0  0  0  0  0  0  0
  1  2  1  0
  2  3  2  0
  2  4  1  0
  4  5  2  0
  5  6  1  0
  6  7  2  0
  7  8  1  0
  8  9  2  0
  9 10  1  0
 10 11  2  0
 11 12  1  0
 12 13  2  0
 13 14  1  0
  8 15  1  0
 15 16  1  0
 16 17  1  0
 17 18  1  0
 18 19  1  0
 19 20  2  0
 20 21  1  0
 21 22  1  0
 21 23  2  0
 23 24  1  0
 23 25  1  0
 25 26  2  0
 26 27  1  0
 18 28  1  0
 28 29  1  0
 13  4  1  0
 29 15  1  0
 12  7  1  0
 26 19  1  0
M  END
>  <AAScore>  (1) 
45.62673727159551

>  <RootName>  (1) 
./4ZLY/04_DeltaGEst/trajectory_02/rank_01/lead_0315

$$$$
