confid_19
     RDKit          3D

 27 30  0  0  0  0  0  0  0  0999 V2000
   24.4800   26.1000   36.1300 N   0  0  0  0  0  0  0  0  0  0  0  0
   25.2500   26.2500   34.9900 C   0  0  0  0  0  0  0  0  0  0  0  0
   24.7400   25.7600   33.9900 O   0  0  0  0  0  0  0  0  0  0  0  0
   26.5900   26.8900   34.9600 C   0  0  0  0  0  0  0  0  0  0  0  0
   27.0600   27.2400   36.1600 N   0  0  0  0  0  0  0  0  0  0  0  0
   28.3000   27.7100   36.2400 N   0  0  0  0  0  0  0  0  0  0  0  0
   29.0500   27.9600   35.1500 C   0  0  0  0  0  0  0  0  0  0  0  0
   30.3400   28.4900   35.2600 C   0  0  0  0  0  0  0  0  0  0  0  0
   31.1100   28.8200   34.1400 C   0  0  0  0  0  0  0  0  0  0  0  0
   30.5200   28.6700   32.8800 C   0  0  0  0  0  0  0  0  0  0  0  0
   29.2900   28.0200   32.7700 C   0  0  0  0  0  0  0  0  0  0  0  0
   28.5200   27.7100   33.8900 C   0  0  0  0  0  0  0  0  0  0  0  0
   27.2700   27.0800   33.7600 C   0  0  0  0  0  0  0  0  0  0  0  0
   26.7500   26.8800   32.4900 N   0  0  0  0  0  0  0  0  0  0  0  0
   23.5458   25.0378   36.4151 C   0  0  0  0  0  0  0  0  0  0  0  0
   23.2546   24.7300   37.6385 N   0  0  0  0  0  0  0  0  0  0  0  0
   22.3207   23.6624   37.6036 C   0  0  0  0  0  0  0  0  0  0  0  0
   22.0059   23.3545   36.3548 C   0  0  0  0  0  0  0  0  0  0  0  0
   21.8763   21.9697   35.8518 C   0  0  0  0  0  0  0  0  0  0  0  0
   22.6671   21.9496   34.6083 N   0  0  0  0  0  0  0  0  0  0  0  0
   23.4896   20.7367   34.4935 C   0  0  0  0  0  0  0  0  0  0  0  0
   23.4979   23.1738   34.6083 C   0  0  0  0  0  0  0  0  0  0  0  0
   22.7307   24.2312   35.4210 C   0  0  2  0  0  0  0  0  0  0  0  0
   21.7489   25.0636   34.5393 C   0  0  0  0  0  0  0  0  0  0  0  0
   20.9414   26.1817   35.2605 C   0  0  0  0  0  0  0  0  0  0  0  0
   20.4658   27.2260   34.2395 C   0  0  0  0  0  0  0  0  0  0  0  0
   19.7243   25.6246   36.0178 C   0  0  0  0  0  0  0  0  0  0  0  0
  1  2  1  0
  2  3  2  0
  2  4  1  0
  4  5  2  0
  5  6  1  0
  6  7  2  0
  7  8  1  0
  8  9  2  0
  9 10  1  0
 10 11  2  0
 11 12  1  0
 12 13  2  0
 13 14  1  0
  1 15  1  0
 15 16  2  0
 16 17  1  0
 17 18  2  0
 18 19  1  0
 19 20  1  0
 20 21  1  0
 20 22  1  0
 22 23  1  0
 23 24  1  6
 24 25  1  0
 25 26  1  0
 25 27  1  0
 13  4  1  0
 23 15  1  0
 12  7  1  0
 23 18  1  0
M  END
>  <AAScore>  (1) 
458.7650368745036

>  <RootName>  (1) 
./4ZLY/04_DeltaGEst/trajectory_00/rank_00/lead_0100

$$$$
