confid_16
     RDKit          3D

 27 31  0  0  0  0  0  0  0  0999 V2000
   24.4800   26.1000   36.1300 N   0  0  0  0  0  0  0  0  0  0  0  0
   25.2500   26.2500   34.9900 C   0  0  0  0  0  0  0  0  0  0  0  0
   24.7400   25.7600   33.9900 O   0  0  0  0  0  0  0  0  0  0  0  0
   26.5900   26.8900   34.9600 C   0  0  0  0  0  0  0  0  0  0  0  0
   27.0600   27.2400   36.1600 N   0  0  0  0  0  0  0  0  0  0  0  0
   28.3000   27.7100   36.2400 N   0  0  0  0  0  0  0  0  0  0  0  0
   29.0500   27.9600   35.1500 C   0  0  0  0  0  0  0  0  0  0  0  0
   30.3400   28.4900   35.2600 C   0  0  0  0  0  0  0  0  0  0  0  0
   31.1100   28.8200   34.1400 C   0  0  0  0  0  0  0  0  0  0  0  0
   30.5200   28.6700   32.8800 C   0  0  0  0  0  0  0  0  0  0  0  0
   29.2900   28.0200   32.7700 C   0  0  0  0  0  0  0  0  0  0  0  0
   28.5200   27.7100   33.8900 C   0  0  0  0  0  0  0  0  0  0  0  0
   27.2700   27.0800   33.7600 C   0  0  0  0  0  0  0  0  0  0  0  0
   26.7500   26.8800   32.4900 N   0  0  0  0  0  0  0  0  0  0  0  0
   23.5530   25.0283   36.3801 C   0  0  0  0  0  0  0  0  0  0  0  0
   23.5932   23.9526   35.6364 N   0  0  0  0  0  0  0  0  0  0  0  0
   22.8062   22.7832   35.8525 C   0  0  0  0  0  0  0  0  0  0  0  0
   22.7803   22.3037   37.0741 C   0  0  0  0  0  0  0  0  0  0  0  0
   23.2983   22.4931   38.4793 C   0  0  1  0  0  0  0  0  0  0  0  0
   24.6468   22.2239   38.6238 F   0  0  0  0  0  0  0  0  0  0  0  0
   22.7881   23.7199   39.0937 N   0  0  0  0  0  0  0  0  0  0  0  0
   22.4659   23.7406   40.5121 C   0  0  0  0  0  0  0  0  0  0  0  0
   21.0296   24.2413   40.6413 C   0  0  0  0  0  0  0  0  0  0  0  0
   20.7177   25.4476   39.3057 S   0  0  0  0  0  0  0  0  0  0  0  0
   22.0739   24.7460   38.3941 C   0  0  0  0  0  0  0  0  0  0  0  0
   22.4480   25.2983   37.2708 N   0  0  0  0  0  0  0  0  0  0  0  0
   22.4011   21.4048   38.2561 C   0  0  0  0  0  0  0  0  0  0  0  0
  1  2  1  0
  2  3  2  0
  2  4  1  0
  4  5  2  0
  5  6  1  0
  6  7  2  0
  7  8  1  0
  8  9  2  0
  9 10  1  0
 10 11  2  0
 11 12  1  0
 12 13  2  0
 13 14  1  0
  1 15  1  0
 15 16  2  0
 16 17  1  0
 17 18  2  0
 18 19  1  0
 19 20  1  6
 19 21  1  0
 21 22  1  0
 22 23  1  0
 23 24  1  0
 24 25  1  0
 25 26  2  0
 19 27  1  0
 13  4  1  0
 26 15  1  0
 12  7  1  0
 27 18  1  0
 25 21  1  0
M  END
>  <AAScore>  (1) 
817.0091639358438

>  <RootName>  (1) 
./4ZLY/04_DeltaGEst/trajectory_00/rank_00/lead_0042

$$$$
