confid_14
     RDKit          3D

 28 31  0  0  0  0  0  0  0  0999 V2000
   25.3300   26.2600   34.7600 N   0  0  0  0  0  0  0  0  0  0  0  0
   26.1200   25.9200   33.6900 C   0  0  0  0  0  0  0  0  0  0  0  0
   25.6300   25.1100   32.9400 O   0  0  0  0  0  0  0  0  0  0  0  0
   27.5200   26.3800   33.4600 C   0  0  0  0  0  0  0  0  0  0  0  0
   28.1600   26.6300   34.6100 N   0  0  0  0  0  0  0  0  0  0  0  0
   29.4800   26.8500   34.5700 N   0  0  0  0  0  0  0  0  0  0  0  0
   30.1900   26.7800   33.4400 C   0  0  0  0  0  0  0  0  0  0  0  0
   31.5600   27.0500   33.5000 C   0  0  0  0  0  0  0  0  0  0  0  0
   32.2700   27.2400   32.3100 C   0  0  0  0  0  0  0  0  0  0  0  0
   31.6100   27.2500   31.0800 C   0  0  0  0  0  0  0  0  0  0  0  0
   30.2700   26.8700   31.0600 C   0  0  0  0  0  0  0  0  0  0  0  0
   29.5100   26.6900   32.2300 C   0  0  0  0  0  0  0  0  0  0  0  0
   28.1400   26.4100   32.2000 C   0  0  0  0  0  0  0  0  0  0  0  0
   27.4300   26.1300   31.0500 N   0  0  0  0  0  0  0  0  0  0  0  0
   27.2984   24.7217   30.6186 C   0  0  0  0  0  0  0  0  0  0  0  0
   28.1461   24.3840   29.3738 C   0  0  0  0  0  0  0  0  0  0  0  0
   27.3132   24.0163   28.2146 N   0  0  0  0  0  0  0  0  0  0  0  0
   27.3230   24.8914   27.0668 C   0  0  0  0  0  0  0  0  0  0  0  0
   28.0630   24.5300   25.9299 C   0  0  0  0  0  0  0  0  0  0  0  0
   28.0958   25.3786   24.8239 C   0  0  0  0  0  0  0  0  0  0  0  0
   27.4196   26.5552   24.8481 N   0  0  0  0  0  0  0  0  0  0  0  0
   26.6938   26.9392   25.9302 C   0  0  0  0  0  0  0  0  0  0  0  0
   26.6157   26.1143   27.0639 C   0  0  0  0  0  0  0  0  0  0  0  0
   25.8294   26.5784   28.2606 C   0  0  0  0  0  0  0  0  0  0  0  0
   26.7081   27.4311   29.2017 C   0  0  0  0  0  0  0  0  0  0  0  0
   26.5015   27.1039   30.6188 N   0  0  0  0  0  0  0  0  0  0  0  0
   26.9497   22.6044   27.9997 C   0  0  0  0  0  0  0  0  0  0  0  0
   26.0685   22.0607   29.1199 C   0  0  0  0  0  0  0  0  0  0  0  0
  1  2  1  0
  2  3  2  0
  2  4  1  0
  4  5  2  0
  5  6  1  0
  6  7  2  0
  7  8  1  0
  8  9  2  0
  9 10  1  0
 10 11  2  0
 11 12  1  0
 12 13  2  0
 13 14  1  0
 14 15  1  0
 15 16  1  0
 16 17  1  0
 17 18  1  0
 18 19  2  0
 19 20  1  0
 20 21  2  0
 21 22  1  0
 22 23  2  0
 23 24  1  0
 24 25  1  0
 25 26  1  0
 17 27  1  0
 27 28  1  0
 13  4  1  0
 26 14  1  0
 12  7  1  0
 23 18  1  0
M  END
>  <AAScore>  (1) 
239.3667585574528

>  <RootName>  (1) 
./4ZLY/04_DeltaGEst/trajectory_03/rank_01/lead_0175

$$$$
