confid_13
     RDKit          3D

 27 29  0  0  0  0  0  0  0  0999 V2000
   24.4800   26.1000   36.1300 N   0  0  0  0  0  0  0  0  0  0  0  0
   25.2500   26.2500   34.9900 C   0  0  0  0  0  0  0  0  0  0  0  0
   24.7400   25.7600   33.9900 O   0  0  0  0  0  0  0  0  0  0  0  0
   26.5900   26.8900   34.9600 C   0  0  0  0  0  0  0  0  0  0  0  0
   27.0600   27.2400   36.1600 N   0  0  0  0  0  0  0  0  0  0  0  0
   28.3000   27.7100   36.2400 N   0  0  0  0  0  0  0  0  0  0  0  0
   29.0500   27.9600   35.1500 C   0  0  0  0  0  0  0  0  0  0  0  0
   30.3400   28.4900   35.2600 C   0  0  0  0  0  0  0  0  0  0  0  0
   31.1100   28.8200   34.1400 C   0  0  0  0  0  0  0  0  0  0  0  0
   30.5200   28.6700   32.8800 C   0  0  0  0  0  0  0  0  0  0  0  0
   29.2900   28.0200   32.7700 C   0  0  0  0  0  0  0  0  0  0  0  0
   28.5200   27.7100   33.8900 C   0  0  0  0  0  0  0  0  0  0  0  0
   27.2700   27.0800   33.7600 C   0  0  0  0  0  0  0  0  0  0  0  0
   26.7500   26.8800   32.4900 N   0  0  0  0  0  0  0  0  0  0  0  0
   23.0408   26.0248   36.1471 C   0  0  0  0  0  0  0  0  0  0  0  0
   22.2606   26.7029   35.1935 C   0  0  0  0  0  0  0  0  0  0  0  0
   20.8624   26.6340   35.2396 C   0  0  0  0  0  0  0  0  0  0  0  0
   19.8948   27.4750   34.0258 S   0  0  0  0  0  6  0  0  0  0  0  0
   20.6065   28.7327   33.6104 O   0  0  0  0  0  0  0  0  0  0  0  0
   18.5743   27.8675   34.6285 O   0  0  0  0  0  0  0  0  0  0  0  0
   19.6171   26.4736   32.6219 N   0  0  0  0  0  0  0  0  0  0  0  0
   20.8996   26.1148   32.0035 C   0  0  0  0  0  0  0  0  0  0  0  0
   18.8866   25.2615   33.0125 C   0  0  0  0  0  0  0  0  0  0  0  0
   20.2369   25.8926   36.2499 C   0  0  0  0  0  0  0  0  0  0  0  0
   21.0022   25.2177   37.2114 C   0  0  0  0  0  0  0  0  0  0  0  0
   22.4016   25.3066   37.1683 C   0  0  0  0  0  0  0  0  0  0  0  0
   20.3266   24.4641   38.3187 C   0  0  0  0  0  0  0  0  0  0  0  0
  1  2  1  0
  2  3  2  0
  2  4  1  0
  4  5  2  0
  5  6  1  0
  6  7  2  0
  7  8  1  0
  8  9  2  0
  9 10  1  0
 10 11  2  0
 11 12  1  0
 12 13  2  0
 13 14  1  0
  1 15  1  0
 15 16  2  0
 16 17  1  0
 17 18  1  0
 18 19  2  0
 18 20  2  0
 18 21  1  0
 21 22  1  0
 21 23  1  0
 17 24  2  0
 24 25  1  0
 25 26  2  0
 25 27  1  0
 13  4  1  0
 26 15  1  0
 12  7  1  0
M  END
>  <AAScore>  (1) 
2749.582106873069

>  <RootName>  (1) 
./4ZLY/04_DeltaGEst/trajectory_00/rank_00/lead_0135

$$$$
