confid_17
     RDKit          3D

 27 31  0  0  0  0  0  0  0  0999 V2000
   24.2000   26.2400   35.6900 N   0  0  0  0  0  0  0  0  0  0  0  0
   24.8500   26.2800   34.4800 C   0  0  0  0  0  0  0  0  0  0  0  0
   24.3100   25.7400   33.5400 O   0  0  0  0  0  0  0  0  0  0  0  0
   26.1800   26.9700   34.4700 C   0  0  0  0  0  0  0  0  0  0  0  0
   26.6500   27.6000   35.5500 N   0  0  0  0  0  0  0  0  0  0  0  0
   27.7900   28.2700   35.6200 N   0  0  0  0  0  0  0  0  0  0  0  0
   28.5400   28.3000   34.5100 C   0  0  0  0  0  0  0  0  0  0  0  0
   29.7700   28.9400   34.5600 C   0  0  0  0  0  0  0  0  0  0  0  0
   30.7000   28.8900   33.5000 C   0  0  0  0  0  0  0  0  0  0  0  0
   30.3700   28.1400   32.3700 C   0  0  0  0  0  0  0  0  0  0  0  0
   29.1200   27.5200   32.2800 C   0  0  0  0  0  0  0  0  0  0  0  0
   28.2100   27.6100   33.3300 C   0  0  0  0  0  0  0  0  0  0  0  0
   26.9700   26.9700   33.3100 C   0  0  0  0  0  0  0  0  0  0  0  0
   26.5300   26.2400   32.2200 N   0  0  0  0  0  0  0  0  0  0  0  0
   30.1704   29.6147   35.7712 N   0  0  0  0  0  0  0  0  0  0  0  0
   30.3642   28.9281   37.0563 C   0  0  0  0  0  0  0  0  0  0  0  0
   31.2979   29.8267   37.9020 C   0  0  0  0  0  0  0  0  0  0  0  0
   31.5714   30.9758   36.9979 C   0  0  0  0  0  0  0  0  0  0  0  0
   32.3931   32.0866   37.1825 C   0  0  0  0  0  0  0  0  0  0  0  0
   32.5201   32.9715   36.1518 N   0  0  0  0  0  0  0  0  0  0  0  0
   31.8582   32.7900   34.9698 C   0  0  0  0  0  0  0  0  0  0  0  0
   31.0440   31.7091   34.8032 N   0  0  0  0  0  0  0  0  0  0  0  0
   30.9183   30.8167   35.8171 C   0  0  0  0  0  0  0  0  0  0  0  0
   32.0290   33.7905   33.8700 C   0  0  0  0  0  0  0  0  0  0  0  0
   32.0771   33.2391   32.4525 C   0  0  0  0  0  0  0  0  0  0  0  0
   33.3611   33.6564   33.1496 C   0  0  0  0  0  0  0  0  0  0  0  0
   33.1587   32.2904   38.4497 C   0  0  0  0  0  0  0  0  0  0  0  0
  1  2  1  0
  2  3  2  0
  2  4  1  0
  4  5  2  0
  5  6  1  0
  6  7  2  0
  7  8  1  0
  8  9  2  0
  9 10  1  0
 10 11  2  0
 11 12  1  0
 12 13  2  0
 13 14  1  0
  8 15  1  0
 15 16  1  0
 16 17  1  0
 17 18  1  0
 18 19  2  0
 19 20  1  0
 20 21  2  0
 21 22  1  0
 22 23  2  0
 21 24  1  0
 24 25  1  0
 25 26  1  0
 19 27  1  0
 13  4  1  0
 23 15  1  0
 26 24  1  0
 12  7  1  0
 23 18  1  0
M  END
>  <AAScore>  (1) 
-0.0469272355559361

>  <RootName>  (1) 
./4ZLY/04_DeltaGEst/trajectory_04/rank_01/lead_0402

$$$$
