confid_7
     RDKit          3D

 29 32  0  0  0  0  0  0  0  0999 V2000
   25.3300   26.2600   34.7600 N   0  0  0  0  0  0  0  0  0  0  0  0
   26.1200   25.9200   33.6900 C   0  0  0  0  0  0  0  0  0  0  0  0
   25.6300   25.1100   32.9400 O   0  0  0  0  0  0  0  0  0  0  0  0
   27.5200   26.3800   33.4600 C   0  0  0  0  0  0  0  0  0  0  0  0
   28.1600   26.6300   34.6100 N   0  0  0  0  0  0  0  0  0  0  0  0
   29.4800   26.8500   34.5700 N   0  0  0  0  0  0  0  0  0  0  0  0
   30.1900   26.7800   33.4400 C   0  0  0  0  0  0  0  0  0  0  0  0
   31.5600   27.0500   33.5000 C   0  0  0  0  0  0  0  0  0  0  0  0
   32.2700   27.2400   32.3100 C   0  0  0  0  0  0  0  0  0  0  0  0
   31.6100   27.2500   31.0800 C   0  0  0  0  0  0  0  0  0  0  0  0
   30.2700   26.8700   31.0600 C   0  0  0  0  0  0  0  0  0  0  0  0
   29.5100   26.6900   32.2300 C   0  0  0  0  0  0  0  0  0  0  0  0
   28.1400   26.4100   32.2000 C   0  0  0  0  0  0  0  0  0  0  0  0
   27.4300   26.1300   31.0500 N   0  0  0  0  0  0  0  0  0  0  0  0
   27.5857   24.8186   30.4027 C   0  0  0  0  0  0  0  0  0  0  0  0
   26.6969   24.6996   29.1600 C   0  0  0  0  0  0  0  0  0  0  0  0
   26.7962   25.9180   28.3449 N   0  0  0  0  0  0  0  0  0  0  0  0
   26.7214   25.8235   26.9107 C   0  0  0  0  0  0  0  0  0  0  0  0
   25.6889   25.0852   26.3064 C   0  0  0  0  0  0  0  0  0  0  0  0
   25.6037   24.9949   24.9106 C   0  0  0  0  0  0  0  0  0  0  0  0
   26.5572   25.6398   24.1102 C   0  0  0  0  0  0  0  0  0  0  0  0
   26.4881   25.5636   22.7564 F   0  0  0  0  0  0  0  0  0  0  0  0
   27.5897   26.3697   24.7062 C   0  0  0  0  0  0  0  0  0  0  0  0
   27.6753   26.4641   26.0988 C   0  0  0  0  0  0  0  0  0  0  0  0
   28.7108   27.1441   26.6516 F   0  0  0  0  0  0  0  0  0  0  0  0
   24.5345   24.2427   24.3051 C   0  0  0  0  0  0  0  0  0  0  0  0
   23.6752   23.6386   23.8188 N   0  0  0  0  0  0  0  0  0  0  0  0
   26.7354   27.2453   28.9802 C   0  0  0  0  0  0  0  0  0  0  0  0
   26.5199   27.1361   30.4922 C   0  0  0  0  0  0  0  0  0  0  0  0
  1  2  1  0
  2  3  2  0
  2  4  1  0
  4  5  2  0
  5  6  1  0
  6  7  2  0
  7  8  1  0
  8  9  2  0
  9 10  1  0
 10 11  2  0
 11 12  1  0
 12 13  2  0
 13 14  1  0
 14 15  1  0
 15 16  1  0
 16 17  1  0
 17 18  1  0
 18 19  2  0
 19 20  1  0
 20 21  2  0
 21 22  1  0
 21 23  1  0
 23 24  2  0
 24 25  1  0
 20 26  1  0
 26 27  3  0
 17 28  1  0
 28 29  1  0
 13  4  1  0
 29 14  1  0
 12  7  1  0
 24 18  1  0
M  END
>  <AAScore>  (1) 
1.2538411221433443

>  <RootName>  (1) 
./4ZLY/04_DeltaGEst/trajectory_03/rank_01/lead_0497

$$$$
