confid_17
     RDKit          3D

 28 31  0  0  0  0  0  0  0  0999 V2000
   24.5700   26.8800   35.5900 N   0  0  0  0  0  0  0  0  0  0  0  0
   25.5000   26.4000   34.6900 C   0  0  0  0  0  0  0  0  0  0  0  0
   25.1700   25.5200   33.9100 O   0  0  0  0  0  0  0  0  0  0  0  0
   26.8400   27.0200   34.7400 C   0  0  0  0  0  0  0  0  0  0  0  0
   27.3800   27.2800   35.9400 N   0  0  0  0  0  0  0  0  0  0  0  0
   28.6200   27.7400   36.0300 N   0  0  0  0  0  0  0  0  0  0  0  0
   29.3800   28.0000   34.9600 C   0  0  0  0  0  0  0  0  0  0  0  0
   30.6700   28.5000   35.1300 C   0  0  0  0  0  0  0  0  0  0  0  0
   31.5400   28.6100   34.0300 C   0  0  0  0  0  0  0  0  0  0  0  0
   31.0900   28.2200   32.7700 C   0  0  0  0  0  0  0  0  0  0  0  0
   29.8000   27.7000   32.6000 C   0  0  0  0  0  0  0  0  0  0  0  0
   28.9600   27.5500   33.7100 C   0  0  0  0  0  0  0  0  0  0  0  0
   27.6600   27.0300   33.5900 C   0  0  0  0  0  0  0  0  0  0  0  0
   27.1600   26.7400   32.3400 N   0  0  0  0  0  0  0  0  0  0  0  0
   23.3647   26.1912   35.9655 C   0  0  0  0  0  0  0  0  0  0  0  0
   22.2701   26.9192   36.3057 N   0  0  0  0  0  0  0  0  0  0  0  0
   21.1054   26.3388   36.6911 C   0  0  0  0  0  0  0  0  0  0  0  0
   20.9924   24.9407   36.7667 C   0  0  0  0  0  0  0  0  0  0  0  0
   19.6483   24.3322   37.1413 C   0  0  0  0  0  0  0  0  0  0  0  0
   18.8711   23.8215   35.9837 N   0  0  0  0  0  0  0  0  0  0  0  0
   18.6761   22.3553   35.9019 C   0  0  0  0  0  0  0  0  0  0  0  0
   19.9340   21.5040   36.1531 C   0  0  0  0  0  0  0  0  0  0  0  0
   21.1314   22.1203   35.5363 N   0  0  0  0  0  0  0  0  0  0  0  0
   21.7823   21.2106   34.5804 C   0  0  0  0  0  0  0  0  0  0  0  0
   22.0936   22.6510   36.5314 C   0  0  0  0  0  0  0  0  0  0  0  0
   22.1244   24.1544   36.4465 C   0  0  0  0  0  0  0  0  0  0  0  0
   23.3114   24.7918   36.0492 C   0  0  0  0  0  0  0  0  0  0  0  0
   19.1153   24.4702   34.6834 C   0  0  0  0  0  0  0  0  0  0  0  0
  1  2  1  0
  2  3  2  0
  2  4  1  0
  4  5  2  0
  5  6  1  0
  6  7  2  0
  7  8  1  0
  8  9  2  0
  9 10  1  0
 10 11  2  0
 11 12  1  0
 12 13  2  0
 13 14  1  0
  1 15  1  0
 15 16  2  0
 16 17  1  0
 17 18  2  0
 18 19  1  0
 19 20  1  0
 20 21  1  0
 21 22  1  0
 22 23  1  0
 23 24  1  0
 23 25  1  0
 25 26  1  0
 26 27  2  0
 20 28  1  0
 13  4  1  0
 27 15  1  0
 12  7  1  0
 26 18  1  0
M  END
>  <AAScore>  (1) 
3377.439857899376

>  <RootName>  (1) 
./4ZLY/04_DeltaGEst/trajectory_05/rank_00/lead_0473

$$$$
