confid_16
     RDKit          3D

 31 35  0  0  0  0  0  0  0  0999 V2000
   25.3300   26.2600   34.7600 N   0  0  0  0  0  0  0  0  0  0  0  0
   26.1200   25.9200   33.6900 C   0  0  0  0  0  0  0  0  0  0  0  0
   25.6300   25.1100   32.9400 O   0  0  0  0  0  0  0  0  0  0  0  0
   27.5200   26.3800   33.4600 C   0  0  0  0  0  0  0  0  0  0  0  0
   28.1600   26.6300   34.6100 N   0  0  0  0  0  0  0  0  0  0  0  0
   29.4800   26.8500   34.5700 N   0  0  0  0  0  0  0  0  0  0  0  0
   30.1900   26.7800   33.4400 C   0  0  0  0  0  0  0  0  0  0  0  0
   31.5600   27.0500   33.5000 C   0  0  0  0  0  0  0  0  0  0  0  0
   32.2700   27.2400   32.3100 C   0  0  0  0  0  0  0  0  0  0  0  0
   31.6100   27.2500   31.0800 C   0  0  0  0  0  0  0  0  0  0  0  0
   30.2700   26.8700   31.0600 C   0  0  0  0  0  0  0  0  0  0  0  0
   29.5100   26.6900   32.2300 C   0  0  0  0  0  0  0  0  0  0  0  0
   28.1400   26.4100   32.2000 C   0  0  0  0  0  0  0  0  0  0  0  0
   27.4300   26.1300   31.0500 N   0  0  0  0  0  0  0  0  0  0  0  0
   23.8973   26.1501   34.7761 C   0  0  0  0  0  0  0  0  0  0  0  0
   23.3232   25.9259   35.9240 N   0  0  0  0  0  0  0  0  0  0  0  0
   21.9348   25.7794   36.2462 C   0  0  0  0  0  0  0  0  0  0  0  0
   21.1349   24.9790   35.5538 C   0  0  0  0  0  0  0  0  0  0  0  0
   19.8252   24.2738   35.7446 C   0  0  0  0  0  0  0  0  0  0  0  0
   19.9090   23.5362   34.5678 O   0  0  0  0  0  0  0  0  0  0  0  0
   21.1091   24.1834   34.2823 C   0  0  1  0  0  0  0  0  0  0  0  0
   20.9432   25.0615   33.0391 C   0  0  0  0  0  0  0  0  0  0  0  0
   22.0004   26.1090   32.9058 C   0  0  0  0  0  0  0  0  0  0  0  0
   23.1450   26.5409   33.5626 C   0  0  0  0  0  0  0  0  0  0  0  0
   23.4145   27.5757   32.5526 N   0  0  0  0  0  0  0  0  0  0  0  0
   22.2202   27.1577   31.9590 C   0  0  1  0  0  0  0  0  0  0  0  0
   22.4014   26.6800   30.5010 C   0  0  0  0  0  0  0  0  0  0  0  0
   23.5564   25.6930   30.2880 C   0  0  0  0  0  0  0  0  0  0  0  0
   23.5599   25.2814   28.9375 O   0  0  0  0  0  0  0  0  0  0  0  0
   24.6747   24.4512   28.7023 C   0  0  0  0  0  0  0  0  0  0  0  0
   24.3909   28.6328   32.3464 C   0  0  0  0  0  0  0  0  0  0  0  0
  1  2  1  0
  2  3  2  0
  2  4  1  0
  4  5  2  0
  5  6  1  0
  6  7  2  0
  7  8  1  0
  8  9  2  0
  9 10  1  0
 10 11  2  0
 11 12  1  0
 12 13  2  0
 13 14  1  0
  1 15  1  0
 15 16  2  0
 16 17  1  0
 17 18  2  0
 18 19  1  0
 19 20  1  0
 20 21  1  0
 21 22  1  6
 22 23  1  0
 23 24  2  0
 24 25  1  0
 25 26  1  0
 26 27  1  6
 27 28  1  0
 28 29  1  0
 29 30  1  0
 25 31  1  0
 13  4  1  0
 24 15  1  0
 12  7  1  0
 21 18  1  0
 26 23  1  0
M  END
>  <AAScore>  (1) 
16425.239976832116

>  <RootName>  (1) 
./4ZLY/04_DeltaGEst/trajectory_03/rank_00/lead_0360

$$$$
