confid_11
     RDKit          3D

 26 28  0  0  0  0  0  0  0  0999 V2000
   24.5500   26.3900   36.2500 N   0  0  0  0  0  0  0  0  0  0  0  0
   25.6000   26.1300   35.4000 C   0  0  0  0  0  0  0  0  0  0  0  0
   25.4300   25.4300   34.4200 O   0  0  0  0  0  0  0  0  0  0  0  0
   26.9800   26.6300   35.7100 C   0  0  0  0  0  0  0  0  0  0  0  0
   27.3200   26.8200   36.9800 N   0  0  0  0  0  0  0  0  0  0  0  0
   28.4700   27.4000   37.3100 N   0  0  0  0  0  0  0  0  0  0  0  0
   29.4000   27.6300   36.3700 C   0  0  0  0  0  0  0  0  0  0  0  0
   30.6600   28.0500   36.8000 C   0  0  0  0  0  0  0  0  0  0  0  0
   31.5700   28.3600   35.7800 C   0  0  0  0  0  0  0  0  0  0  0  0
   31.3700   28.1000   34.4300 C   0  0  0  0  0  0  0  0  0  0  0  0
   30.1200   27.5900   34.0500 C   0  0  0  0  0  0  0  0  0  0  0  0
   29.1500   27.3400   35.0300 C   0  0  0  0  0  0  0  0  0  0  0  0
   27.8800   26.8900   34.6600 C   0  0  0  0  0  0  0  0  0  0  0  0
   27.4800   26.6100   33.3700 N   0  0  0  0  0  0  0  0  0  0  0  0
   23.1725   25.9992   35.9523 C   0  0  0  0  0  0  0  0  0  0  0  0
   22.6596   26.7609   34.8109 N   0  0  0  0  0  0  0  0  0  0  0  0
   22.4354   28.1709   34.9398 C   0  0  0  0  0  0  0  0  0  0  0  0
   21.1326   28.6638   35.1068 C   0  0  0  0  0  0  0  0  0  0  0  0
   20.9111   30.0397   35.2206 C   0  0  0  0  0  0  0  0  0  0  0  0
   21.9882   30.9292   35.1644 C   0  0  0  0  0  0  0  0  0  0  0  0
   23.2877   30.4436   34.9919 C   0  0  0  0  0  0  0  0  0  0  0  0
   23.5122   29.0683   34.8778 C   0  0  0  0  0  0  0  0  0  0  0  0
   22.0357   25.9315   33.4171 S   0  0  0  0  0  6  0  0  0  0  0  0
   20.5981   25.5627   33.6509 O   0  0  0  0  0  0  0  0  0  0  0  0
   22.8355   24.6851   33.1611 O   0  0  0  0  0  0  0  0  0  0  0  0
   22.1592   26.9801   31.9838 C   0  0  0  0  0  0  0  0  0  0  0  0
  1  2  1  0
  2  3  2  0
  2  4  1  0
  4  5  2  0
  5  6  1  0
  6  7  2  0
  7  8  1  0
  8  9  2  0
  9 10  1  0
 10 11  2  0
 11 12  1  0
 12 13  2  0
 13 14  1  0
  1 15  1  0
 15 16  1  0
 16 17  1  0
 17 18  2  0
 18 19  1  0
 19 20  2  0
 20 21  1  0
 21 22  2  0
 16 23  1  0
 23 24  2  0
 23 25  2  0
 23 26  1  0
 13  4  1  0
 22 17  1  0
 12  7  1  0
M  END
>  <AAScore>  (1) 
4586.782421452512

>  <RootName>  (1) 
./4ZLY/04_DeltaGEst/trajectory_01/rank_00/lead_0482

$$$$
