confid_19
     RDKit          3D

 27 30  0  0  0  0  0  0  0  0999 V2000
   24.5500   26.3900   36.2500 N   0  0  0  0  0  0  0  0  0  0  0  0
   25.6000   26.1300   35.4000 C   0  0  0  0  0  0  0  0  0  0  0  0
   25.4300   25.4300   34.4200 O   0  0  0  0  0  0  0  0  0  0  0  0
   26.9800   26.6300   35.7100 C   0  0  0  0  0  0  0  0  0  0  0  0
   27.3200   26.8200   36.9800 N   0  0  0  0  0  0  0  0  0  0  0  0
   28.4700   27.4000   37.3100 N   0  0  0  0  0  0  0  0  0  0  0  0
   29.4000   27.6300   36.3700 C   0  0  0  0  0  0  0  0  0  0  0  0
   30.6600   28.0500   36.8000 C   0  0  0  0  0  0  0  0  0  0  0  0
   31.5700   28.3600   35.7800 C   0  0  0  0  0  0  0  0  0  0  0  0
   31.3700   28.1000   34.4300 C   0  0  0  0  0  0  0  0  0  0  0  0
   30.1200   27.5900   34.0500 C   0  0  0  0  0  0  0  0  0  0  0  0
   29.1500   27.3400   35.0300 C   0  0  0  0  0  0  0  0  0  0  0  0
   27.8800   26.8900   34.6600 C   0  0  0  0  0  0  0  0  0  0  0  0
   27.4800   26.6100   33.3700 N   0  0  0  0  0  0  0  0  0  0  0  0
   23.1732   25.9320   36.0200 C   0  0  0  0  0  0  0  0  0  0  0  0
   22.2528   27.1512   35.8506 C   0  0  0  0  0  0  0  0  0  0  0  0
   20.7885   26.7110   35.7615 C   0  0  0  0  0  0  0  0  0  0  0  0
   20.4126   25.8419   36.8894 N   0  0  0  0  0  0  0  0  0  0  0  0
   19.0223   25.5281   37.1287 C   0  0  0  0  0  0  0  0  0  0  0  0
   18.6619   25.1190   38.2676 O   0  0  0  0  0  0  0  0  0  0  0  0
   17.9765   25.7494   36.0612 C   0  0  0  0  0  0  0  0  0  0  0  0
   16.7452   24.8535   36.2481 C   0  0  0  0  0  0  0  0  0  0  0  0
   15.7670   25.0472   35.0818 C   0  0  0  0  0  0  0  0  0  0  0  0
   14.3253   24.6675   35.3803 C   0  0  0  0  0  0  0  0  0  0  0  0
   14.7195   26.1331   35.2745 C   0  0  0  0  0  0  0  0  0  0  0  0
   21.4326   25.4447   37.8731 C   0  0  0  0  0  0  0  0  0  0  0  0
   22.7238   24.9937   37.1721 C   0  0  0  0  0  0  0  0  0  0  0  0
  1  2  1  0
  2  3  2  0
  2  4  1  0
  4  5  2  0
  5  6  1  0
  6  7  2  0
  7  8  1  0
  8  9  2  0
  9 10  1  0
 10 11  2  0
 11 12  1  0
 12 13  2  0
 13 14  1  0
  1 15  1  0
 15 16  1  0
 16 17  1  0
 17 18  1  0
 18 19  1  0
 19 20  2  0
 19 21  1  0
 21 22  1  0
 22 23  1  0
 23 24  1  0
 24 25  1  0
 18 26  1  0
 26 27  1  0
 13  4  1  0
 27 15  1  0
 12  7  1  0
 25 23  1  0
M  END
>  <AAScore>  (1) 
418.4394438369602

>  <RootName>  (1) 
./4ZLY/04_DeltaGEst/trajectory_01/rank_00/lead_0159

$$$$
