confid_16
     RDKit          3D

 28 31  0  0  0  0  0  0  0  0999 V2000
   24.2000   26.2400   35.6900 N   0  0  0  0  0  0  0  0  0  0  0  0
   24.8500   26.2800   34.4800 C   0  0  0  0  0  0  0  0  0  0  0  0
   24.3100   25.7400   33.5400 O   0  0  0  0  0  0  0  0  0  0  0  0
   26.1800   26.9700   34.4700 C   0  0  0  0  0  0  0  0  0  0  0  0
   26.6500   27.6000   35.5500 N   0  0  0  0  0  0  0  0  0  0  0  0
   27.7900   28.2700   35.6200 N   0  0  0  0  0  0  0  0  0  0  0  0
   28.5400   28.3000   34.5100 C   0  0  0  0  0  0  0  0  0  0  0  0
   29.7700   28.9400   34.5600 C   0  0  0  0  0  0  0  0  0  0  0  0
   30.7000   28.8900   33.5000 C   0  0  0  0  0  0  0  0  0  0  0  0
   30.3700   28.1400   32.3700 C   0  0  0  0  0  0  0  0  0  0  0  0
   29.1200   27.5200   32.2800 C   0  0  0  0  0  0  0  0  0  0  0  0
   28.2100   27.6100   33.3300 C   0  0  0  0  0  0  0  0  0  0  0  0
   26.9700   26.9700   33.3100 C   0  0  0  0  0  0  0  0  0  0  0  0
   26.5300   26.2400   32.2200 N   0  0  0  0  0  0  0  0  0  0  0  0
   22.7818   26.0608   35.8413 C   0  0  0  0  0  0  0  0  0  0  0  0
   22.3138   25.3675   36.9094 N   0  0  0  0  0  0  0  0  0  0  0  0
   20.9878   25.1767   37.1251 C   0  0  0  0  0  0  0  0  0  0  0  0
   20.0298   25.7012   36.2402 C   0  0  0  0  0  0  0  0  0  0  0  0
   18.5638   25.5030   36.6038 C   0  0  0  0  0  0  0  0  0  0  0  0
   17.6837   25.3185   35.4349 N   0  0  0  0  0  0  0  0  0  0  0  0
   18.0049   24.1213   34.6330 C   0  0  0  0  0  0  0  0  0  0  0  0
   18.1639   24.5224   33.1589 C   0  0  0  0  0  0  0  0  0  0  0  0
   19.5555   25.1004   32.8310 C   0  0  0  0  0  0  0  0  0  0  0  0
   19.5998   26.5202   32.8271 O   0  0  0  0  0  0  0  0  0  0  0  0
   19.5679   27.1184   34.1180 C   0  0  0  0  0  0  0  0  0  0  0  0
   20.4904   26.4793   35.1407 C   0  0  0  0  0  0  0  0  0  0  0  0
   21.8729   26.6388   34.9477 C   0  0  0  0  0  0  0  0  0  0  0  0
   16.2709   25.3330   35.8457 C   0  0  0  0  0  0  0  0  0  0  0  0
  1  2  1  0
  2  3  2  0
  2  4  1  0
  4  5  2  0
  5  6  1  0
  6  7  2  0
  7  8  1  0
  8  9  2  0
  9 10  1  0
 10 11  2  0
 11 12  1  0
 12 13  2  0
 13 14  1  0
  1 15  1  0
 15 16  2  0
 16 17  1  0
 17 18  2  0
 18 19  1  0
 19 20  1  0
 20 21  1  0
 21 22  1  0
 22 23  1  0
 23 24  1  0
 24 25  1  0
 25 26  1  0
 26 27  2  0
 20 28  1  0
 13  4  1  0
 27 15  1  0
 12  7  1  0
 26 18  1  0
M  END
>  <AAScore>  (1) 
544.5387957790327

>  <RootName>  (1) 
./4ZLY/04_DeltaGEst/trajectory_04/rank_00/lead_0293

$$$$
