confid_16
     RDKit          3D

 28 32  0  0  0  0  0  0  0  0999 V2000
   24.5500   26.3900   36.2500 N   0  0  0  0  0  0  0  0  0  0  0  0
   25.6000   26.1300   35.4000 C   0  0  0  0  0  0  0  0  0  0  0  0
   25.4300   25.4300   34.4200 O   0  0  0  0  0  0  0  0  0  0  0  0
   26.9800   26.6300   35.7100 C   0  0  0  0  0  0  0  0  0  0  0  0
   27.3200   26.8200   36.9800 N   0  0  0  0  0  0  0  0  0  0  0  0
   28.4700   27.4000   37.3100 N   0  0  0  0  0  0  0  0  0  0  0  0
   29.4000   27.6300   36.3700 C   0  0  0  0  0  0  0  0  0  0  0  0
   30.6600   28.0500   36.8000 C   0  0  0  0  0  0  0  0  0  0  0  0
   31.5700   28.3600   35.7800 C   0  0  0  0  0  0  0  0  0  0  0  0
   31.3700   28.1000   34.4300 C   0  0  0  0  0  0  0  0  0  0  0  0
   30.1200   27.5900   34.0500 C   0  0  0  0  0  0  0  0  0  0  0  0
   29.1500   27.3400   35.0300 C   0  0  0  0  0  0  0  0  0  0  0  0
   27.8800   26.8900   34.6600 C   0  0  0  0  0  0  0  0  0  0  0  0
   27.4800   26.6100   33.3700 N   0  0  0  0  0  0  0  0  0  0  0  0
   30.9793   28.3017   38.1783 N   0  0  0  0  0  0  0  0  0  0  0  0
   31.8643   27.3974   38.9009 C   0  0  0  0  0  0  0  0  0  0  0  0
   31.0286   26.5256   39.8414 C   0  0  0  0  0  0  0  0  0  0  0  0
   29.9306   27.2953   40.5649 C   0  0  0  0  0  0  0  0  0  0  0  0
   29.2099   26.7098   41.6378 C   0  0  0  0  0  0  0  0  0  0  0  0
   28.2240   27.4851   42.2749 C   0  0  0  0  0  0  0  0  0  0  0  0
   27.9440   28.7345   41.8333 N   0  0  0  0  0  0  0  0  0  0  0  0
   28.5814   29.2648   40.7931 N   0  0  0  0  0  0  0  0  0  0  0  0
   29.5519   28.5892   40.1282 C   0  0  0  0  0  0  0  0  0  0  0  0
   30.2310   29.2729   38.9730 C   0  0  0  0  0  0  0  0  0  0  0  0
   29.4788   25.2800   42.1107 C   0  0  0  0  0  0  0  0  0  0  0  0
   28.2264   24.4270   42.3265 C   0  0  0  0  0  0  0  0  0  0  0  0
   28.5585   24.3198   43.8098 C   0  0  0  0  0  0  0  0  0  0  0  0
   29.8087   25.1658   43.5991 C   0  0  0  0  0  0  0  0  0  0  0  0
  1  2  1  0
  2  3  2  0
  2  4  1  0
  4  5  2  0
  5  6  1  0
  6  7  2  0
  7  8  1  0
  8  9  2  0
  9 10  1  0
 10 11  2  0
 11 12  1  0
 12 13  2  0
 13 14  1  0
  8 15  1  0
 15 16  1  0
 16 17  1  0
 17 18  1  0
 18 19  2  0
 19 20  1  0
 20 21  2  0
 21 22  1  0
 22 23  2  0
 23 24  1  0
 19 25  1  0
 25 26  1  0
 26 27  1  0
 27 28  1  0
 13  4  1  0
 24 15  1  0
 28 25  1  0
 12  7  1  0
 23 18  1  0
M  END
>  <AAScore>  (1) 
225.1865394187145

>  <RootName>  (1) 
./4ZLY/04_DeltaGEst/trajectory_01/rank_01/lead_0427

$$$$
