confid_7
     RDKit          3D

 30 33  0  0  0  0  0  0  0  0999 V2000
   25.3300   26.2600   34.7600 N   0  0  0  0  0  0  0  0  0  0  0  0
   26.1200   25.9200   33.6900 C   0  0  0  0  0  0  0  0  0  0  0  0
   25.6300   25.1100   32.9400 O   0  0  0  0  0  0  0  0  0  0  0  0
   27.5200   26.3800   33.4600 C   0  0  0  0  0  0  0  0  0  0  0  0
   28.1600   26.6300   34.6100 N   0  0  0  0  0  0  0  0  0  0  0  0
   29.4800   26.8500   34.5700 N   0  0  0  0  0  0  0  0  0  0  0  0
   30.1900   26.7800   33.4400 C   0  0  0  0  0  0  0  0  0  0  0  0
   31.5600   27.0500   33.5000 C   0  0  0  0  0  0  0  0  0  0  0  0
   32.2700   27.2400   32.3100 C   0  0  0  0  0  0  0  0  0  0  0  0
   31.6100   27.2500   31.0800 C   0  0  0  0  0  0  0  0  0  0  0  0
   30.2700   26.8700   31.0600 C   0  0  0  0  0  0  0  0  0  0  0  0
   29.5100   26.6900   32.2300 C   0  0  0  0  0  0  0  0  0  0  0  0
   28.1400   26.4100   32.2000 C   0  0  0  0  0  0  0  0  0  0  0  0
   27.4300   26.1300   31.0500 N   0  0  0  0  0  0  0  0  0  0  0  0
   26.5171   27.1344   30.4963 C   0  0  0  0  0  0  0  0  0  0  0  0
   26.6255   27.1525   28.9697 C   0  0  0  0  0  0  0  0  0  0  0  0
   26.5407   25.7978   28.4011 N   0  0  0  0  0  0  0  0  0  0  0  0
   26.3619   25.6607   26.9764 C   0  0  0  0  0  0  0  0  0  0  0  0
   26.7753   26.5750   26.2103 O   0  0  0  0  0  0  0  0  0  0  0  0
   25.7284   24.4305   26.3766 C   0  0  0  0  0  0  0  0  0  0  0  0
   24.9058   24.7725   25.1616 C   0  0  0  0  0  0  0  0  0  0  0  0
   25.4521   24.6470   23.8734 C   0  0  0  0  0  0  0  0  0  0  0  0
   24.6944   24.9941   22.7505 C   0  0  0  0  0  0  0  0  0  0  0  0
   23.3914   25.4765   22.9052 C   0  0  0  0  0  0  0  0  0  0  0  0
   22.6611   25.8132   21.8134 F   0  0  0  0  0  0  0  0  0  0  0  0
   22.8449   25.6158   24.1852 C   0  0  0  0  0  0  0  0  0  0  0  0
   21.5839   26.0906   24.3378 F   0  0  0  0  0  0  0  0  0  0  0  0
   23.6000   25.2694   25.3105 C   0  0  0  0  0  0  0  0  0  0  0  0
   26.5575   24.6197   29.2828 C   0  0  0  0  0  0  0  0  0  0  0  0
   27.5662   24.8088   30.4215 C   0  0  0  0  0  0  0  0  0  0  0  0
  1  2  1  0
  2  3  2  0
  2  4  1  0
  4  5  2  0
  5  6  1  0
  6  7  2  0
  7  8  1  0
  8  9  2  0
  9 10  1  0
 10 11  2  0
 11 12  1  0
 12 13  2  0
 13 14  1  0
 14 15  1  0
 15 16  1  0
 16 17  1  0
 17 18  1  0
 18 19  2  0
 18 20  1  0
 20 21  1  0
 21 22  2  0
 22 23  1  0
 23 24  2  0
 24 25  1  0
 24 26  1  0
 26 27  1  0
 26 28  2  0
 17 29  1  0
 29 30  1  0
 13  4  1  0
 30 14  1  0
 12  7  1  0
 28 21  1  0
M  END
>  <AAScore>  (1) 
11.009559228624417

>  <RootName>  (1) 
./4ZLY/04_DeltaGEst/trajectory_03/rank_01/lead_0094

$$$$
