confid_2
     RDKit          3D

 28 31  0  0  0  0  0  0  0  0999 V2000
   24.2000   26.2400   35.6900 N   0  0  0  0  0  0  0  0  0  0  0  0
   24.8500   26.2800   34.4800 C   0  0  0  0  0  0  0  0  0  0  0  0
   24.3100   25.7400   33.5400 O   0  0  0  0  0  0  0  0  0  0  0  0
   26.1800   26.9700   34.4700 C   0  0  0  0  0  0  0  0  0  0  0  0
   26.6500   27.6000   35.5500 N   0  0  0  0  0  0  0  0  0  0  0  0
   27.7900   28.2700   35.6200 N   0  0  0  0  0  0  0  0  0  0  0  0
   28.5400   28.3000   34.5100 C   0  0  0  0  0  0  0  0  0  0  0  0
   29.7700   28.9400   34.5600 C   0  0  0  0  0  0  0  0  0  0  0  0
   30.7000   28.8900   33.5000 C   0  0  0  0  0  0  0  0  0  0  0  0
   30.3700   28.1400   32.3700 C   0  0  0  0  0  0  0  0  0  0  0  0
   29.1200   27.5200   32.2800 C   0  0  0  0  0  0  0  0  0  0  0  0
   28.2100   27.6100   33.3300 C   0  0  0  0  0  0  0  0  0  0  0  0
   26.9700   26.9700   33.3100 C   0  0  0  0  0  0  0  0  0  0  0  0
   26.5300   26.2400   32.2200 N   0  0  0  0  0  0  0  0  0  0  0  0
   30.1428   29.6820   35.7347 N   0  0  0  0  0  0  0  0  0  0  0  0
   31.2813   29.2489   36.5514 C   0  0  0  0  0  0  0  0  0  0  0  0
   32.2746   30.4092   36.7786 C   0  0  0  0  0  0  0  0  0  0  0  0
   31.6843   31.7377   36.4914 N   0  0  0  0  0  0  0  0  0  0  0  0
   32.5107   32.8113   37.0761 C   0  0  0  0  0  0  0  0  0  0  0  0
   32.2374   34.1125   36.3776 C   0  0  0  0  0  0  0  0  0  0  0  0
   31.7654   35.2275   37.0842 C   0  0  0  0  0  0  0  0  0  0  0  0
   31.5032   36.4132   36.3957 C   0  0  0  0  0  0  0  0  0  0  0  0
   31.7162   36.4801   35.0178 C   0  0  0  0  0  0  0  0  0  0  0  0
   32.1961   35.3509   34.3426 C   0  0  0  0  0  0  0  0  0  0  0  0
   32.4300   35.3943   32.8667 C   0  0  0  0  0  0  0  0  0  0  0  0
   32.4411   34.2044   35.0342 N   0  0  0  0  0  0  0  0  0  0  0  0
   30.2895   31.8098   36.9688 C   0  0  0  0  0  0  0  0  0  0  0  0
   29.4201   30.9109   36.0863 C   0  0  0  0  0  0  0  0  0  0  0  0
  1  2  1  0
  2  3  2  0
  2  4  1  0
  4  5  2  0
  5  6  1  0
  6  7  2  0
  7  8  1  0
  8  9  2  0
  9 10  1  0
 10 11  2  0
 11 12  1  0
 12 13  2  0
 13 14  1  0
  8 15  1  0
 15 16  1  0
 16 17  1  0
 17 18  1  0
 18 19  1  0
 19 20  1  0
 20 21  2  0
 21 22  1  0
 22 23  2  0
 23 24  1  0
 24 25  1  0
 24 26  2  0
 18 27  1  0
 27 28  1  0
 13  4  1  0
 28 15  1  0
 12  7  1  0
 26 20  1  0
M  END
>  <AAScore>  (1) 
-7.754103591963915

>  <RootName>  (1) 
./4ZLY/04_DeltaGEst/trajectory_04/rank_01/lead_0057

$$$$
