confid_11
     RDKit          3D

 29 32  0  0  0  0  0  0  0  0999 V2000
   24.5500   26.3900   36.2500 N   0  0  0  0  0  0  0  0  0  0  0  0
   25.6000   26.1300   35.4000 C   0  0  0  0  0  0  0  0  0  0  0  0
   25.4300   25.4300   34.4200 O   0  0  0  0  0  0  0  0  0  0  0  0
   26.9800   26.6300   35.7100 C   0  0  0  0  0  0  0  0  0  0  0  0
   27.3200   26.8200   36.9800 N   0  0  0  0  0  0  0  0  0  0  0  0
   28.4700   27.4000   37.3100 N   0  0  0  0  0  0  0  0  0  0  0  0
   29.4000   27.6300   36.3700 C   0  0  0  0  0  0  0  0  0  0  0  0
   30.6600   28.0500   36.8000 C   0  0  0  0  0  0  0  0  0  0  0  0
   31.5700   28.3600   35.7800 C   0  0  0  0  0  0  0  0  0  0  0  0
   31.3700   28.1000   34.4300 C   0  0  0  0  0  0  0  0  0  0  0  0
   30.1200   27.5900   34.0500 C   0  0  0  0  0  0  0  0  0  0  0  0
   29.1500   27.3400   35.0300 C   0  0  0  0  0  0  0  0  0  0  0  0
   27.8800   26.8900   34.6600 C   0  0  0  0  0  0  0  0  0  0  0  0
   27.4800   26.6100   33.3700 N   0  0  0  0  0  0  0  0  0  0  0  0
   23.2019   25.8973   36.0934 C   0  0  0  0  0  0  0  0  0  0  0  0
   22.9304   25.0316   35.1580 N   0  0  0  0  0  0  0  0  0  0  0  0
   21.6503   24.4626   34.8721 C   0  0  0  0  0  0  0  0  0  0  0  0
   20.7737   24.9763   33.9774 C   0  0  0  0  0  0  0  0  0  0  0  0
   19.5687   24.1555   33.5978 C   0  0  0  0  0  0  0  0  0  0  0  0
   19.2887   24.3673   32.1649 N   0  0  0  0  0  0  0  0  0  0  0  0
   18.9597   25.7832   31.8455 C   0  0  0  0  0  0  0  0  0  0  0  0
   19.5939   26.8112   32.8066 C   0  0  0  0  0  0  0  0  0  0  0  0
   20.8423   26.3066   33.3947 N   0  0  0  0  0  0  0  0  0  0  0  0
   21.9565   27.2560   33.5562 C   0  0  0  0  0  0  0  0  0  0  0  0
   21.7888   28.1518   34.8047 C   0  0  0  0  0  0  0  0  0  0  0  0
   20.8097   27.3792   36.1566 S   0  0  0  0  0  0  0  0  0  0  0  0
   22.1290   26.4321   37.0109 C   0  0  0  0  0  0  0  0  0  0  0  0
   18.2319   23.4429   31.7005 C   0  0  0  0  0  0  0  0  0  0  0  0
   18.1802   23.3817   30.1742 C   0  0  0  0  0  0  0  0  0  0  0  0
  1  2  1  0
  2  3  2  0
  2  4  1  0
  4  5  2  0
  5  6  1  0
  6  7  2  0
  7  8  1  0
  8  9  2  0
  9 10  1  0
 10 11  2  0
 11 12  1  0
 12 13  2  0
 13 14  1  0
  1 15  1  0
 15 16  2  0
 16 17  1  0
 17 18  2  0
 18 19  1  0
 19 20  1  0
 20 21  1  0
 21 22  1  0
 22 23  1  0
 23 24  1  0
 24 25  1  0
 25 26  1  0
 26 27  1  0
 20 28  1  0
 28 29  1  0
 13  4  1  0
 27 15  1  0
 12  7  1  0
 23 18  1  0
M  END
>  <AAScore>  (1) 
1301.5914623592814

>  <RootName>  (1) 
./4ZLY/04_DeltaGEst/trajectory_01/rank_00/lead_0095

$$$$
