confid_1
     RDKit          3D

 26 29  0  0  0  0  0  0  0  0999 V2000
   24.2000   26.2400   35.6900 N   0  0  0  0  0  0  0  0  0  0  0  0
   24.8500   26.2800   34.4800 C   0  0  0  0  0  0  0  0  0  0  0  0
   24.3100   25.7400   33.5400 O   0  0  0  0  0  0  0  0  0  0  0  0
   26.1800   26.9700   34.4700 C   0  0  0  0  0  0  0  0  0  0  0  0
   26.6500   27.6000   35.5500 N   0  0  0  0  0  0  0  0  0  0  0  0
   27.7900   28.2700   35.6200 N   0  0  0  0  0  0  0  0  0  0  0  0
   28.5400   28.3000   34.5100 C   0  0  0  0  0  0  0  0  0  0  0  0
   29.7700   28.9400   34.5600 C   0  0  0  0  0  0  0  0  0  0  0  0
   30.7000   28.8900   33.5000 C   0  0  0  0  0  0  0  0  0  0  0  0
   30.3700   28.1400   32.3700 C   0  0  0  0  0  0  0  0  0  0  0  0
   29.1200   27.5200   32.2800 C   0  0  0  0  0  0  0  0  0  0  0  0
   28.2100   27.6100   33.3300 C   0  0  0  0  0  0  0  0  0  0  0  0
   26.9700   26.9700   33.3100 C   0  0  0  0  0  0  0  0  0  0  0  0
   26.5300   26.2400   32.2200 N   0  0  0  0  0  0  0  0  0  0  0  0
   30.1350   29.6807   35.7377 N   0  0  0  0  0  0  0  0  0  0  0  0
   29.5108   30.9833   35.9944 C   0  0  0  0  0  0  0  0  0  0  0  0
   30.2354   32.0978   35.2257 C   0  0  0  0  0  0  0  0  0  0  0  0
   31.7388   31.9644   35.1717 C   0  0  0  0  0  0  0  0  0  0  0  0
   32.6917   32.7759   34.0472 S   0  0  0  0  0  0  0  0  0  0  0  0
   34.1283   32.1180   34.6173 C   0  0  0  0  0  0  0  0  0  0  0  0
   33.9108   31.2714   35.6463 N   0  0  0  0  0  0  0  0  0  0  0  0
   32.5918   31.1851   35.9714 C   0  0  0  0  0  0  0  0  0  0  0  0
   32.1342   30.3046   37.0988 C   0  0  0  0  0  0  0  0  0  0  0  0
   31.2073   29.1800   36.6102 C   0  0  0  0  0  0  0  0  0  0  0  0
   35.4740   32.3477   34.0085 C   0  0  0  0  0  0  0  0  0  0  0  0
   35.7535   31.3157   32.9224 C   0  0  0  0  0  0  0  0  0  0  0  0
  1  2  1  0
  2  3  2  0
  2  4  1  0
  4  5  2  0
  5  6  1  0
  6  7  2  0
  7  8  1  0
  8  9  2  0
  9 10  1  0
 10 11  2  0
 11 12  1  0
 12 13  2  0
 13 14  1  0
  8 15  1  0
 15 16  1  0
 16 17  1  0
 17 18  1  0
 18 19  1  0
 19 20  1  0
 20 21  2  0
 21 22  1  0
 22 23  1  0
 23 24  1  0
 20 25  1  0
 25 26  1  0
 13  4  1  0
 24 15  1  0
 12  7  1  0
 22 18  2  0
M  END
>  <AAScore>  (1) 
-5.6221666933873085

>  <RootName>  (1) 
./4ZLY/04_DeltaGEst/trajectory_04/rank_01/lead_0017

$$$$
