confid_14
     RDKit          3D

 27 30  0  0  0  0  0  0  0  0999 V2000
   25.3300   26.2600   34.7600 N   0  0  0  0  0  0  0  0  0  0  0  0
   26.1200   25.9200   33.6900 C   0  0  0  0  0  0  0  0  0  0  0  0
   25.6300   25.1100   32.9400 O   0  0  0  0  0  0  0  0  0  0  0  0
   27.5200   26.3800   33.4600 C   0  0  0  0  0  0  0  0  0  0  0  0
   28.1600   26.6300   34.6100 N   0  0  0  0  0  0  0  0  0  0  0  0
   29.4800   26.8500   34.5700 N   0  0  0  0  0  0  0  0  0  0  0  0
   30.1900   26.7800   33.4400 C   0  0  0  0  0  0  0  0  0  0  0  0
   31.5600   27.0500   33.5000 C   0  0  0  0  0  0  0  0  0  0  0  0
   32.2700   27.2400   32.3100 C   0  0  0  0  0  0  0  0  0  0  0  0
   31.6100   27.2500   31.0800 C   0  0  0  0  0  0  0  0  0  0  0  0
   30.2700   26.8700   31.0600 C   0  0  0  0  0  0  0  0  0  0  0  0
   29.5100   26.6900   32.2300 C   0  0  0  0  0  0  0  0  0  0  0  0
   28.1400   26.4100   32.2000 C   0  0  0  0  0  0  0  0  0  0  0  0
   27.4300   26.1300   31.0500 N   0  0  0  0  0  0  0  0  0  0  0  0
   23.8948   26.1669   34.7533 C   0  0  0  0  0  0  0  0  0  0  0  0
   23.1580   26.2097   33.6212 N   0  0  0  0  0  0  0  0  0  0  0  0
   21.8785   26.2121   34.0532 C   0  0  0  0  0  0  0  0  0  0  0  0
   20.7071   26.2405   33.1037 C   0  0  0  0  0  0  0  0  0  0  0  0
   19.4468   26.9472   33.6467 C   0  0  0  0  0  0  0  0  0  0  0  0
   19.8011   27.9797   34.6473 N   0  0  0  0  0  0  0  0  0  0  0  0
   19.7657   27.4507   36.0318 C   0  0  0  0  0  0  0  0  0  0  0  0
   20.5575   26.1408   36.1974 C   0  0  0  0  0  0  0  0  0  0  0  0
   21.7842   26.1660   35.4020 N   0  0  0  0  0  0  0  0  0  0  0  0
   23.0499   26.1376   35.8564 C   0  0  0  0  0  0  0  0  0  0  0  0
   23.3647   26.0472   37.2214 O   0  0  0  0  0  0  0  0  0  0  0  0
   24.6646   25.8238   37.7530 C   0  0  0  0  0  0  0  0  0  0  0  0
   18.9090   29.1446   34.5384 C   0  0  0  0  0  0  0  0  0  0  0  0
  1  2  1  0
  2  3  2  0
  2  4  1  0
  4  5  2  0
  5  6  1  0
  6  7  2  0
  7  8  1  0
  8  9  2  0
  9 10  1  0
 10 11  2  0
 11 12  1  0
 12 13  2  0
 13 14  1  0
  1 15  1  0
 15 16  1  0
 16 17  2  0
 17 18  1  0
 18 19  1  0
 19 20  1  0
 20 21  1  0
 21 22  1  0
 22 23  1  0
 23 24  1  0
 24 25  1  0
 25 26  1  0
 20 27  1  0
 13  4  1  0
 24 15  2  0
 12  7  1  0
 23 17  1  0
M  END
>  <AAScore>  (1) 
597.3337779018809

>  <RootName>  (1) 
./4ZLY/04_DeltaGEst/trajectory_03/rank_00/lead_0154

$$$$
