confid_3
     RDKit          3D

 28 32  0  0  0  0  0  0  0  0999 V2000
   24.5500   26.3900   36.2500 N   0  0  0  0  0  0  0  0  0  0  0  0
   25.6000   26.1300   35.4000 C   0  0  0  0  0  0  0  0  0  0  0  0
   25.4300   25.4300   34.4200 O   0  0  0  0  0  0  0  0  0  0  0  0
   26.9800   26.6300   35.7100 C   0  0  0  0  0  0  0  0  0  0  0  0
   27.3200   26.8200   36.9800 N   0  0  0  0  0  0  0  0  0  0  0  0
   28.4700   27.4000   37.3100 N   0  0  0  0  0  0  0  0  0  0  0  0
   29.4000   27.6300   36.3700 C   0  0  0  0  0  0  0  0  0  0  0  0
   30.6600   28.0500   36.8000 C   0  0  0  0  0  0  0  0  0  0  0  0
   31.5700   28.3600   35.7800 C   0  0  0  0  0  0  0  0  0  0  0  0
   31.3700   28.1000   34.4300 C   0  0  0  0  0  0  0  0  0  0  0  0
   30.1200   27.5900   34.0500 C   0  0  0  0  0  0  0  0  0  0  0  0
   29.1500   27.3400   35.0300 C   0  0  0  0  0  0  0  0  0  0  0  0
   27.8800   26.8900   34.6600 C   0  0  0  0  0  0  0  0  0  0  0  0
   27.4800   26.6100   33.3700 N   0  0  0  0  0  0  0  0  0  0  0  0
   23.1695   26.0679   35.9896 C   0  0  0  0  0  0  0  0  0  0  0  0
   22.8113   25.7272   34.7824 N   0  0  0  0  0  0  0  0  0  0  0  0
   21.5249   25.3937   34.2495 C   0  0  0  0  0  0  0  0  0  0  0  0
   20.4606   26.1511   34.4680 C   0  0  0  0  0  0  0  0  0  0  0  0
   19.1125   26.3921   33.8564 C   0  0  0  0  0  0  0  0  0  0  0  0
   18.7944   27.4670   34.6806 O   0  0  0  0  0  0  0  0  0  0  0  0
   20.0094   27.2841   35.3374 C   0  0  1  0  0  0  0  0  0  0  0  0
   19.7612   26.8381   36.7787 C   0  0  0  0  0  0  0  0  0  0  0  0
   20.9797   26.3058   37.4611 C   0  0  0  0  0  0  0  0  0  0  0  0
   22.2666   26.0088   37.1606 C   0  0  0  0  0  0  0  0  0  0  0  0
   22.5246   25.6324   38.5207 N   0  0  0  0  0  0  0  0  0  0  0  0
   21.1881   25.9117   38.8384 C   0  0  0  0  0  0  0  0  0  0  0  0
   20.4805   25.8558   39.8779 O   0  0  0  0  0  0  0  0  0  0  0  0
   23.6927   25.2187   39.2799 C   0  0  0  0  0  0  0  0  0  0  0  0
  1  2  1  0
  2  3  2  0
  2  4  1  0
  4  5  2  0
  5  6  1  0
  6  7  2  0
  7  8  1  0
  8  9  2  0
  9 10  1  0
 10 11  2  0
 11 12  1  0
 12 13  2  0
 13 14  1  0
  1 15  1  0
 15 16  2  0
 16 17  1  0
 17 18  2  0
 18 19  1  0
 19 20  1  0
 20 21  1  0
 21 22  1  1
 22 23  1  0
 23 24  2  0
 24 25  1  0
 25 26  1  0
 26 27  2  0
 25 28  1  0
 13  4  1  0
 24 15  1  0
 12  7  1  0
 21 18  1  0
 26 23  1  0
M  END
>  <AAScore>  (1) 
147.63304776361207

>  <RootName>  (1) 
./4ZLY/04_DeltaGEst/trajectory_01/rank_00/lead_0181

$$$$
