confid_4
     RDKit          3D

 27 30  0  0  0  0  0  0  0  0999 V2000
   24.2000   26.2400   35.6900 N   0  0  0  0  0  0  0  0  0  0  0  0
   24.8500   26.2800   34.4800 C   0  0  0  0  0  0  0  0  0  0  0  0
   24.3100   25.7400   33.5400 O   0  0  0  0  0  0  0  0  0  0  0  0
   26.1800   26.9700   34.4700 C   0  0  0  0  0  0  0  0  0  0  0  0
   26.6500   27.6000   35.5500 N   0  0  0  0  0  0  0  0  0  0  0  0
   27.7900   28.2700   35.6200 N   0  0  0  0  0  0  0  0  0  0  0  0
   28.5400   28.3000   34.5100 C   0  0  0  0  0  0  0  0  0  0  0  0
   29.7700   28.9400   34.5600 C   0  0  0  0  0  0  0  0  0  0  0  0
   30.7000   28.8900   33.5000 C   0  0  0  0  0  0  0  0  0  0  0  0
   30.3700   28.1400   32.3700 C   0  0  0  0  0  0  0  0  0  0  0  0
   29.1200   27.5200   32.2800 C   0  0  0  0  0  0  0  0  0  0  0  0
   28.2100   27.6100   33.3300 C   0  0  0  0  0  0  0  0  0  0  0  0
   26.9700   26.9700   33.3100 C   0  0  0  0  0  0  0  0  0  0  0  0
   26.5300   26.2400   32.2200 N   0  0  0  0  0  0  0  0  0  0  0  0
   22.7735   26.1333   35.8460 C   0  0  0  0  0  0  0  0  0  0  0  0
   22.2750   25.5335   36.9608 N   0  0  0  0  0  0  0  0  0  0  0  0
   20.9399   25.4116   37.1834 C   0  0  0  0  0  0  0  0  0  0  0  0
   20.0207   25.9332   36.2644 C   0  0  0  0  0  0  0  0  0  0  0  0
   18.5406   25.7549   36.4821 C   0  0  0  0  0  0  0  0  0  0  0  0
   17.7650   26.8762   35.8536 C   0  0  0  0  0  0  0  0  0  0  0  0
   16.6230   27.1639   36.3047 O   0  0  0  0  0  0  0  0  0  0  0  0
   18.3057   27.5889   34.7227 N   0  0  0  0  0  0  0  0  0  0  0  0
   19.5349   27.1017   34.0823 C   0  0  0  0  0  0  0  0  0  0  0  0
   20.5033   26.5760   35.1103 C   0  0  0  0  0  0  0  0  0  0  0  0
   21.8854   26.6745   34.9005 C   0  0  0  0  0  0  0  0  0  0  0  0
   17.5864   28.7317   34.1459 C   0  0  0  0  0  0  0  0  0  0  0  0
   17.7740   29.9721   35.0128 C   0  0  0  0  0  0  0  0  0  0  0  0
  1  2  1  0
  2  3  2  0
  2  4  1  0
  4  5  2  0
  5  6  1  0
  6  7  2  0
  7  8  1  0
  8  9  2  0
  9 10  1  0
 10 11  2  0
 11 12  1  0
 12 13  2  0
 13 14  1  0
  1 15  1  0
 15 16  2  0
 16 17  1  0
 17 18  2  0
 18 19  1  0
 19 20  1  0
 20 21  2  0
 20 22  1  0
 22 23  1  0
 23 24  1  0
 24 25  2  0
 22 26  1  0
 26 27  1  0
 13  4  1  0
 25 15  1  0
 12  7  1  0
 24 18  1  0
M  END
>  <AAScore>  (1) 
64.82290108772278

>  <RootName>  (1) 
./4ZLY/04_DeltaGEst/trajectory_04/rank_00/lead_0273

$$$$
