confid_2
     RDKit          3D

 27 29  0  0  0  0  0  0  0  0999 V2000
   24.2000   26.2400   35.6900 N   0  0  0  0  0  0  0  0  0  0  0  0
   24.8500   26.2800   34.4800 C   0  0  0  0  0  0  0  0  0  0  0  0
   24.3100   25.7400   33.5400 O   0  0  0  0  0  0  0  0  0  0  0  0
   26.1800   26.9700   34.4700 C   0  0  0  0  0  0  0  0  0  0  0  0
   26.6500   27.6000   35.5500 N   0  0  0  0  0  0  0  0  0  0  0  0
   27.7900   28.2700   35.6200 N   0  0  0  0  0  0  0  0  0  0  0  0
   28.5400   28.3000   34.5100 C   0  0  0  0  0  0  0  0  0  0  0  0
   29.7700   28.9400   34.5600 C   0  0  0  0  0  0  0  0  0  0  0  0
   30.7000   28.8900   33.5000 C   0  0  0  0  0  0  0  0  0  0  0  0
   30.3700   28.1400   32.3700 C   0  0  0  0  0  0  0  0  0  0  0  0
   29.1200   27.5200   32.2800 C   0  0  0  0  0  0  0  0  0  0  0  0
   28.2100   27.6100   33.3300 C   0  0  0  0  0  0  0  0  0  0  0  0
   26.9700   26.9700   33.3100 C   0  0  0  0  0  0  0  0  0  0  0  0
   26.5300   26.2400   32.2200 N   0  0  0  0  0  0  0  0  0  0  0  0
   30.1362   29.6857   35.7363 N   0  0  0  0  0  0  0  0  0  0  0  0
   29.3561   30.8482   36.1641 C   0  0  0  0  0  0  0  0  0  0  0  0
   30.2691   32.0749   36.2649 C   0  0  0  0  0  0  0  0  0  0  0  0
   31.5063   31.7932   37.1666 C   0  0  0  0  0  0  0  0  0  0  0  0
   32.2522   30.5564   36.6050 C   0  0  0  0  0  0  0  0  0  0  0  0
   31.3307   29.3381   36.5073 C   0  0  0  0  0  0  0  0  0  0  0  0
   32.4832   32.9257   37.2828 N   0  0  0  0  0  0  0  0  0  0  0  0
   33.2013   32.8323   38.5757 C   0  0  0  0  0  0  0  0  0  0  0  0
   31.9047   34.2875   37.0994 C   0  0  0  0  0  0  0  0  0  0  0  0
   32.9658   35.4217   36.9774 C   0  0  0  0  0  0  0  0  0  0  0  0
   34.0425   35.0431   35.9371 C   0  0  0  0  0  0  0  0  0  0  0  0
   32.2593   36.7179   36.5277 C   0  0  0  0  0  0  0  0  0  0  0  0
   33.5559   35.6506   38.2353 O   0  0  0  0  0  0  0  0  0  0  0  0
  1  2  1  0
  2  3  2  0
  2  4  1  0
  4  5  2  0
  5  6  1  0
  6  7  2  0
  7  8  1  0
  8  9  2  0
  9 10  1  0
 10 11  2  0
 11 12  1  0
 12 13  2  0
 13 14  1  0
  8 15  1  0
 15 16  1  0
 16 17  1  0
 17 18  1  0
 18 19  1  0
 19 20  1  0
 18 21  1  0
 21 22  1  0
 21 23  1  0
 23 24  1  0
 24 25  1  0
 24 26  1  0
 24 27  1  0
 13  4  1  0
 20 15  1  0
 12  7  1  0
M  END
>  <AAScore>  (1) 
-7.60118308734168

>  <RootName>  (1) 
./4ZLY/04_DeltaGEst/trajectory_04/rank_01/lead_0015

$$$$
