confid_11
     RDKit          3D

 28 31  0  0  0  0  0  0  0  0999 V2000
   24.2000   26.2400   35.6900 N   0  0  0  0  0  0  0  0  0  0  0  0
   24.8500   26.2800   34.4800 C   0  0  0  0  0  0  0  0  0  0  0  0
   24.3100   25.7400   33.5400 O   0  0  0  0  0  0  0  0  0  0  0  0
   26.1800   26.9700   34.4700 C   0  0  0  0  0  0  0  0  0  0  0  0
   26.6500   27.6000   35.5500 N   0  0  0  0  0  0  0  0  0  0  0  0
   27.7900   28.2700   35.6200 N   0  0  0  0  0  0  0  0  0  0  0  0
   28.5400   28.3000   34.5100 C   0  0  0  0  0  0  0  0  0  0  0  0
   29.7700   28.9400   34.5600 C   0  0  0  0  0  0  0  0  0  0  0  0
   30.7000   28.8900   33.5000 C   0  0  0  0  0  0  0  0  0  0  0  0
   30.3700   28.1400   32.3700 C   0  0  0  0  0  0  0  0  0  0  0  0
   29.1200   27.5200   32.2800 C   0  0  0  0  0  0  0  0  0  0  0  0
   28.2100   27.6100   33.3300 C   0  0  0  0  0  0  0  0  0  0  0  0
   26.9700   26.9700   33.3100 C   0  0  0  0  0  0  0  0  0  0  0  0
   26.5300   26.2400   32.2200 N   0  0  0  0  0  0  0  0  0  0  0  0
   30.1335   29.6922   35.7303 N   0  0  0  0  0  0  0  0  0  0  0  0
   31.2591   29.2536   36.5650 C   0  0  0  0  0  0  0  0  0  0  0  0
   32.2663   30.3987   36.7307 C   0  0  0  0  0  0  0  0  0  0  0  0
   31.5927   31.6836   36.9758 N   0  0  0  0  0  0  0  0  0  0  0  0
   32.3928   32.8720   37.1198 C   0  0  0  0  0  0  0  0  0  0  0  0
   31.9930   34.0883   36.5497 C   0  0  0  0  0  0  0  0  0  0  0  0
   32.8003   35.2158   36.6976 C   0  0  0  0  0  0  0  0  0  0  0  0
   34.0094   35.1348   37.4032 C   0  0  0  0  0  0  0  0  0  0  0  0
   34.8644   36.3623   37.5683 C   0  0  0  0  0  0  0  0  0  0  0  0
   34.3881   33.8895   37.9503 C   0  0  0  0  0  0  0  0  0  0  0  0
   33.5768   32.8086   37.7871 N   0  0  0  0  0  0  0  0  0  0  0  0
   35.6684   33.7187   38.7132 C   0  0  0  0  0  0  0  0  0  0  0  0
   30.1336   31.7193   37.1538 C   0  0  0  0  0  0  0  0  0  0  0  0
   29.4572   30.9692   36.0033 C   0  0  0  0  0  0  0  0  0  0  0  0
  1  2  1  0
  2  3  2  0
  2  4  1  0
  4  5  2  0
  5  6  1  0
  6  7  2  0
  7  8  1  0
  8  9  2  0
  9 10  1  0
 10 11  2  0
 11 12  1  0
 12 13  2  0
 13 14  1  0
  8 15  1  0
 15 16  1  0
 16 17  1  0
 17 18  1  0
 18 19  1  0
 19 20  2  0
 20 21  1  0
 21 22  2  0
 22 23  1  0
 22 24  1  0
 24 25  2  0
 24 26  1  0
 18 27  1  0
 27 28  1  0
 13  4  1  0
 28 15  1  0
 12  7  1  0
 25 19  1  0
M  END
>  <AAScore>  (1) 
-8.018109998130546

>  <RootName>  (1) 
./4ZLY/04_DeltaGEst/trajectory_04/rank_01/lead_0464

$$$$
