confid_18
     RDKit          3D

 26 28  0  0  0  0  0  0  0  0999 V2000
   24.4800   26.1000   36.1300 N   0  0  0  0  0  0  0  0  0  0  0  0
   25.2500   26.2500   34.9900 C   0  0  0  0  0  0  0  0  0  0  0  0
   24.7400   25.7600   33.9900 O   0  0  0  0  0  0  0  0  0  0  0  0
   26.5900   26.8900   34.9600 C   0  0  0  0  0  0  0  0  0  0  0  0
   27.0600   27.2400   36.1600 N   0  0  0  0  0  0  0  0  0  0  0  0
   28.3000   27.7100   36.2400 N   0  0  0  0  0  0  0  0  0  0  0  0
   29.0500   27.9600   35.1500 C   0  0  0  0  0  0  0  0  0  0  0  0
   30.3400   28.4900   35.2600 C   0  0  0  0  0  0  0  0  0  0  0  0
   31.1100   28.8200   34.1400 C   0  0  0  0  0  0  0  0  0  0  0  0
   30.5200   28.6700   32.8800 C   0  0  0  0  0  0  0  0  0  0  0  0
   29.2900   28.0200   32.7700 C   0  0  0  0  0  0  0  0  0  0  0  0
   28.5200   27.7100   33.8900 C   0  0  0  0  0  0  0  0  0  0  0  0
   27.2700   27.0800   33.7600 C   0  0  0  0  0  0  0  0  0  0  0  0
   26.7500   26.8800   32.4900 N   0  0  0  0  0  0  0  0  0  0  0  0
   23.0405   26.0319   36.1471 C   0  0  0  0  0  0  0  0  0  0  0  0
   22.2621   26.7102   35.1902 C   0  0  0  0  0  0  0  0  0  0  0  0
   20.8626   26.6380   35.2311 C   0  0  0  0  0  0  0  0  0  0  0  0
   19.8971   27.4678   34.0082 S   0  0  0  0  0  6  0  0  0  0  0  0
   18.5666   27.8449   34.5985 O   0  0  0  0  0  0  0  0  0  0  0  0
   20.5986   28.7336   33.6001 O   0  0  0  0  0  0  0  0  0  0  0  0
   19.6437   26.4637   32.6015 N   0  0  0  0  0  0  0  0  0  0  0  0
   18.9284   25.2407   32.9862 C   0  0  0  0  0  0  0  0  0  0  0  0
   20.9353   26.1245   31.9910 C   0  0  0  0  0  0  0  0  0  0  0  0
   20.2364   25.8992   36.2434 C   0  0  0  0  0  0  0  0  0  0  0  0
   21.0023   25.2462   37.2116 C   0  0  0  0  0  0  0  0  0  0  0  0
   22.3971   25.3174   37.1686 C   0  0  0  0  0  0  0  0  0  0  0  0
  1  2  1  0
  2  3  2  0
  2  4  1  0
  4  5  2  0
  5  6  1  0
  6  7  2  0
  7  8  1  0
  8  9  2  0
  9 10  1  0
 10 11  2  0
 11 12  1  0
 12 13  2  0
 13 14  1  0
  1 15  1  0
 15 16  2  0
 16 17  1  0
 17 18  1  0
 18 19  2  0
 18 20  2  0
 18 21  1  0
 21 22  1  0
 21 23  1  0
 17 24  2  0
 24 25  1  0
 25 26  2  0
 13  4  1  0
 26 15  1  0
 12  7  1  0
M  END
>  <AAScore>  (1) 
471.5944079619671

>  <RootName>  (1) 
./4ZLY/04_DeltaGEst/trajectory_00/rank_00/lead_0013

$$$$
