confid_13
     RDKit          3D

 28 31  0  0  0  0  0  0  0  0999 V2000
   24.2000   26.2400   35.6900 N   0  0  0  0  0  0  0  0  0  0  0  0
   24.8500   26.2800   34.4800 C   0  0  0  0  0  0  0  0  0  0  0  0
   24.3100   25.7400   33.5400 O   0  0  0  0  0  0  0  0  0  0  0  0
   26.1800   26.9700   34.4700 C   0  0  0  0  0  0  0  0  0  0  0  0
   26.6500   27.6000   35.5500 N   0  0  0  0  0  0  0  0  0  0  0  0
   27.7900   28.2700   35.6200 N   0  0  0  0  0  0  0  0  0  0  0  0
   28.5400   28.3000   34.5100 C   0  0  0  0  0  0  0  0  0  0  0  0
   29.7700   28.9400   34.5600 C   0  0  0  0  0  0  0  0  0  0  0  0
   30.7000   28.8900   33.5000 C   0  0  0  0  0  0  0  0  0  0  0  0
   30.3700   28.1400   32.3700 C   0  0  0  0  0  0  0  0  0  0  0  0
   29.1200   27.5200   32.2800 C   0  0  0  0  0  0  0  0  0  0  0  0
   28.2100   27.6100   33.3300 C   0  0  0  0  0  0  0  0  0  0  0  0
   26.9700   26.9700   33.3100 C   0  0  0  0  0  0  0  0  0  0  0  0
   26.5300   26.2400   32.2200 N   0  0  0  0  0  0  0  0  0  0  0  0
   30.1412   29.6736   35.7459 N   0  0  0  0  0  0  0  0  0  0  0  0
   31.2782   29.1470   36.5320 C   0  0  0  0  0  0  0  0  0  0  0  0
   31.4557   29.7560   37.9369 C   0  0  0  0  0  0  0  0  0  0  0  0
   31.5851   31.2305   37.9352 N   0  0  0  0  0  0  0  0  0  0  0  0
   32.8079   31.7070   37.2528 C   0  0  0  0  0  0  0  0  0  0  0  0
   32.6257   31.8282   35.7524 C   0  0  0  0  0  0  0  0  0  0  0  0
   31.4007   32.0849   35.0802 C   0  0  0  0  0  0  0  0  0  0  0  0
   31.5414   32.2000   33.6987 C   0  0  0  0  0  0  0  0  0  0  0  0
   33.1593   32.0089   33.3032 S   0  0  0  0  0  0  0  0  0  0  0  0
   33.7111   31.7792   34.8717 C   0  0  0  0  0  0  0  0  0  0  0  0
   35.1412   31.5288   35.2305 C   0  0  0  0  0  0  0  0  0  0  0  0
   30.0487   32.2169   35.7379 C   0  0  0  0  0  0  0  0  0  0  0  0
   29.3613   30.8769   36.1086 C   0  0  0  0  0  0  0  0  0  0  0  0
   31.5506   31.7279   39.3207 C   0  0  0  0  0  0  0  0  0  0  0  0
  1  2  1  0
  2  3  2  0
  2  4  1  0
  4  5  2  0
  5  6  1  0
  6  7  2  0
  7  8  1  0
  8  9  2  0
  9 10  1  0
 10 11  2  0
 11 12  1  0
 12 13  2  0
 13 14  1  0
  8 15  1  0
 15 16  1  0
 16 17  1  0
 17 18  1  0
 18 19  1  0
 19 20  1  0
 20 21  1  0
 21 22  2  0
 22 23  1  0
 23 24  1  0
 24 25  1  0
 21 26  1  0
 26 27  1  0
 18 28  1  0
 13  4  1  0
 27 15  1  0
 12  7  1  0
 24 20  2  0
M  END
>  <AAScore>  (1) 
-7.329643488735336

>  <RootName>  (1) 
./4ZLY/04_DeltaGEst/trajectory_04/rank_01/lead_0052

$$$$
