confid_3
     RDKit          3D

 28 31  0  0  0  0  0  0  0  0999 V2000
   24.6900   26.1200   35.5300 N   0  0  0  0  0  0  0  0  0  0  0  0
   25.6600   25.6700   34.6600 C   0  0  0  0  0  0  0  0  0  0  0  0
   25.2400   25.0100   33.7200 O   0  0  0  0  0  0  0  0  0  0  0  0
   27.0300   26.2200   34.8800 C   0  0  0  0  0  0  0  0  0  0  0  0
   27.3500   26.7300   36.0700 N   0  0  0  0  0  0  0  0  0  0  0  0
   28.5700   27.1800   36.3300 N   0  0  0  0  0  0  0  0  0  0  0  0
   29.5300   27.1100   35.3900 C   0  0  0  0  0  0  0  0  0  0  0  0
   30.8300   27.5700   35.6500 C   0  0  0  0  0  0  0  0  0  0  0  0
   31.8500   27.5400   34.6900 C   0  0  0  0  0  0  0  0  0  0  0  0
   31.5100   27.1200   33.4000 C   0  0  0  0  0  0  0  0  0  0  0  0
   30.2200   26.6300   33.1100 C   0  0  0  0  0  0  0  0  0  0  0  0
   29.2400   26.6600   34.1000 C   0  0  0  0  0  0  0  0  0  0  0  0
   27.9300   26.2600   33.8100 C   0  0  0  0  0  0  0  0  0  0  0  0
   27.5200   25.7100   32.6100 N   0  0  0  0  0  0  0  0  0  0  0  0
   23.3164   26.3598   35.1757 C   0  0  0  0  0  0  0  0  0  0  0  0
   22.9175   26.3650   33.8757 N   0  0  0  0  0  0  0  0  0  0  0  0
   21.6265   26.6101   33.5385 C   0  0  0  0  0  0  0  0  0  0  0  0
   20.6757   26.8720   34.5336 C   0  0  0  0  0  0  0  0  0  0  0  0
   19.2340   27.1120   34.1676 C   0  0  0  0  0  0  0  0  0  0  0  0
   18.3469   26.0537   34.6781 N   0  0  0  0  0  0  0  0  0  0  0  0
   17.9320   26.1615   36.0936 C   0  0  0  0  0  0  0  0  0  0  0  0
   19.0538   26.0462   37.1788 C   0  0  0  0  0  0  0  0  0  0  0  0
   19.6688   24.6275   37.2288 C   0  0  0  0  0  0  0  0  0  0  0  0
   18.3733   26.2918   38.5475 C   0  0  0  0  0  0  0  0  0  0  0  0
   20.1516   27.1350   37.0062 C   0  0  0  0  0  0  0  0  0  0  0  0
   21.1039   26.8732   35.8700 C   0  0  0  0  0  0  0  0  0  0  0  0
   22.4101   26.6194   36.1538 N   0  0  0  0  0  0  0  0  0  0  0  0
   18.6041   24.7020   34.1561 C   0  0  0  0  0  0  0  0  0  0  0  0
  1  2  1  0
  2  3  2  0
  2  4  1  0
  4  5  2  0
  5  6  1  0
  6  7  2  0
  7  8  1  0
  8  9  2  0
  9 10  1  0
 10 11  2  0
 11 12  1  0
 12 13  2  0
 13 14  1  0
  1 15  1  0
 15 16  2  0
 16 17  1  0
 17 18  2  0
 18 19  1  0
 19 20  1  0
 20 21  1  0
 21 22  1  0
 22 23  1  0
 22 24  1  0
 22 25  1  0
 25 26  1  0
 26 27  2  0
 20 28  1  0
 13  4  1  0
 27 15  1  0
 12  7  1  0
 26 18  1  0
M  END
>  <AAScore>  (1) 
2076.996424940213

>  <RootName>  (1) 
./4ZLY/04_DeltaGEst/trajectory_02/rank_00/lead_0353

$$$$
