confid_11
     RDKit          3D

 33 36  0  0  0  0  0  0  0  0999 V2000
   24.5700   26.8800   35.5900 N   0  0  0  0  0  0  0  0  0  0  0  0
   25.5000   26.4000   34.6900 C   0  0  0  0  0  0  0  0  0  0  0  0
   25.1700   25.5200   33.9100 O   0  0  0  0  0  0  0  0  0  0  0  0
   26.8400   27.0200   34.7400 C   0  0  0  0  0  0  0  0  0  0  0  0
   27.3800   27.2800   35.9400 N   0  0  0  0  0  0  0  0  0  0  0  0
   28.6200   27.7400   36.0300 N   0  0  0  0  0  0  0  0  0  0  0  0
   29.3800   28.0000   34.9600 C   0  0  0  0  0  0  0  0  0  0  0  0
   30.6700   28.5000   35.1300 C   0  0  0  0  0  0  0  0  0  0  0  0
   31.5400   28.6100   34.0300 C   0  0  0  0  0  0  0  0  0  0  0  0
   31.0900   28.2200   32.7700 C   0  0  0  0  0  0  0  0  0  0  0  0
   29.8000   27.7000   32.6000 C   0  0  0  0  0  0  0  0  0  0  0  0
   28.9600   27.5500   33.7100 C   0  0  0  0  0  0  0  0  0  0  0  0
   27.6600   27.0300   33.5900 C   0  0  0  0  0  0  0  0  0  0  0  0
   27.1600   26.7400   32.3400 N   0  0  0  0  0  0  0  0  0  0  0  0
   23.1511   26.7859   35.3746 C   0  0  0  0  0  0  0  0  0  0  0  0
   22.7173   26.9023   34.1437 N   0  0  0  0  0  0  0  0  0  0  0  0
   21.4189   26.8353   33.5331 C   0  0  0  0  0  0  0  0  0  0  0  0
   20.5351   25.8347   33.7148 C   0  0  0  0  0  0  0  0  0  0  0  0
   20.7760   24.7633   34.7554 C   0  0  1  0  0  0  0  0  0  0  0  0
   20.2427   25.2558   36.1053 C   0  0  0  0  0  0  0  0  0  0  0  0
   20.8427   26.5517   36.4699 N   0  0  0  0  0  0  0  0  0  0  0  0
   20.0483   27.7833   36.3396 C   0  0  0  0  0  0  0  0  0  0  0  0
   22.3002   26.6496   36.6364 C   0  0  0  0  0  0  0  0  0  0  0  0
   20.2087   23.4087   34.3558 C   0  0  0  0  0  0  0  0  0  0  0  0
   19.0497   23.1239   34.6231 O   0  0  0  0  0  0  0  0  0  0  0  0
   21.0870   22.3833   33.6615 C   0  0  0  0  0  0  0  0  0  0  0  0
   20.7158   22.1079   32.1719 C   0  0  0  0  0  0  0  0  0  0  0  0
   21.8711   21.3089   31.5292 C   0  0  0  0  0  0  0  0  0  0  0  0
   19.4376   21.2385   32.0847 C   0  0  0  0  0  0  0  0  0  0  0  0
   20.5360   23.4377   31.3852 C   0  0  0  0  0  0  0  0  0  0  0  0
   19.2489   23.9779   31.6190 O   0  0  0  0  0  0  0  0  0  0  0  0
   19.2492   25.3898   31.5897 C   0  0  0  0  0  0  0  0  0  0  0  0
   19.1934   25.9392   33.0182 C   0  0  0  0  0  0  0  0  0  0  0  0
  1  2  1  0
  2  3  2  0
  2  4  1  0
  4  5  2  0
  5  6  1  0
  6  7  2  0
  7  8  1  0
  8  9  2  0
  9 10  1  0
 10 11  2  0
 11 12  1  0
 12 13  2  0
 13 14  1  0
  1 15  1  0
 15 16  2  0
 16 17  1  0
 17 18  2  0
 18 19  1  0
 19 20  1  1
 20 21  1  0
 21 22  1  0
 21 23  1  0
 19 24  1  0
 24 25  2  0
 24 26  1  0
 26 27  1  0
 27 28  1  0
 27 29  1  0
 27 30  1  0
 30 31  1  0
 31 32  1  0
 32 33  1  0
 13  4  1  0
 23 15  1  0
 12  7  1  0
 33 18  1  0
M  END
>  <AAScore>  (1) 
734.0677121948821

>  <RootName>  (1) 
./4ZLY/04_DeltaGEst/trajectory_05/rank_00/lead_0162

$$$$
