confid_6
     RDKit          3D

 27 30  0  0  0  0  0  0  0  0999 V2000
   24.6900   26.1200   35.5300 N   0  0  0  0  0  0  0  0  0  0  0  0
   25.6600   25.6700   34.6600 C   0  0  0  0  0  0  0  0  0  0  0  0
   25.2400   25.0100   33.7200 O   0  0  0  0  0  0  0  0  0  0  0  0
   27.0300   26.2200   34.8800 C   0  0  0  0  0  0  0  0  0  0  0  0
   27.3500   26.7300   36.0700 N   0  0  0  0  0  0  0  0  0  0  0  0
   28.5700   27.1800   36.3300 N   0  0  0  0  0  0  0  0  0  0  0  0
   29.5300   27.1100   35.3900 C   0  0  0  0  0  0  0  0  0  0  0  0
   30.8300   27.5700   35.6500 C   0  0  0  0  0  0  0  0  0  0  0  0
   31.8500   27.5400   34.6900 C   0  0  0  0  0  0  0  0  0  0  0  0
   31.5100   27.1200   33.4000 C   0  0  0  0  0  0  0  0  0  0  0  0
   30.2200   26.6300   33.1100 C   0  0  0  0  0  0  0  0  0  0  0  0
   29.2400   26.6600   34.1000 C   0  0  0  0  0  0  0  0  0  0  0  0
   27.9300   26.2600   33.8100 C   0  0  0  0  0  0  0  0  0  0  0  0
   27.5200   25.7100   32.6100 N   0  0  0  0  0  0  0  0  0  0  0  0
   31.1428   28.0791   36.9553 N   0  0  0  0  0  0  0  0  0  0  0  0
   31.2565   27.1662   38.0957 C   0  0  0  0  0  0  0  0  0  0  0  0
   30.4848   27.7349   39.2901 C   0  0  0  0  0  0  0  0  0  0  0  0
   30.8011   29.1568   39.5238 N   0  0  0  0  0  0  0  0  0  0  0  0
   30.3773   29.8068   40.7457 C   0  0  0  0  0  0  0  0  0  0  0  0
   29.3256   29.2890   41.5293 C   0  0  0  0  0  0  0  0  0  0  0  0
   28.9318   29.9581   42.6978 C   0  0  0  0  0  0  0  0  0  0  0  0
   27.8452   29.3936   43.5664 C   0  0  0  0  0  0  0  0  0  0  0  0
   29.6036   31.1259   43.0804 C   0  0  0  0  0  0  0  0  0  0  0  0
   30.6343   31.6179   42.2807 C   0  0  0  0  0  0  0  0  0  0  0  0
   30.9948   30.9554   41.1507 N   0  0  0  0  0  0  0  0  0  0  0  0
   31.6867   29.8697   38.5855 C   0  0  0  0  0  0  0  0  0  0  0  0
   31.3338   29.5222   37.1338 C   0  0  0  0  0  0  0  0  0  0  0  0
  1  2  1  0
  2  3  2  0
  2  4  1  0
  4  5  2  0
  5  6  1  0
  6  7  2  0
  7  8  1  0
  8  9  2  0
  9 10  1  0
 10 11  2  0
 11 12  1  0
 12 13  2  0
 13 14  1  0
  8 15  1  0
 15 16  1  0
 16 17  1  0
 17 18  1  0
 18 19  1  0
 19 20  2  0
 20 21  1  0
 21 22  1  0
 21 23  2  0
 23 24  1  0
 24 25  2  0
 18 26  1  0
 26 27  1  0
 13  4  1  0
 27 15  1  0
 12  7  1  0
 25 19  1  0
M  END
>  <AAScore>  (1) 
-7.688340361032877

>  <RootName>  (1) 
./4ZLY/04_DeltaGEst/trajectory_02/rank_01/lead_0003

$$$$
