confid_19
     RDKit          3D

 27 30  0  0  0  0  0  0  0  0999 V2000
   24.6900   26.1200   35.5300 N   0  0  0  0  0  0  0  0  0  0  0  0
   25.6600   25.6700   34.6600 C   0  0  0  0  0  0  0  0  0  0  0  0
   25.2400   25.0100   33.7200 O   0  0  0  0  0  0  0  0  0  0  0  0
   27.0300   26.2200   34.8800 C   0  0  0  0  0  0  0  0  0  0  0  0
   27.3500   26.7300   36.0700 N   0  0  0  0  0  0  0  0  0  0  0  0
   28.5700   27.1800   36.3300 N   0  0  0  0  0  0  0  0  0  0  0  0
   29.5300   27.1100   35.3900 C   0  0  0  0  0  0  0  0  0  0  0  0
   30.8300   27.5700   35.6500 C   0  0  0  0  0  0  0  0  0  0  0  0
   31.8500   27.5400   34.6900 C   0  0  0  0  0  0  0  0  0  0  0  0
   31.5100   27.1200   33.4000 C   0  0  0  0  0  0  0  0  0  0  0  0
   30.2200   26.6300   33.1100 C   0  0  0  0  0  0  0  0  0  0  0  0
   29.2400   26.6600   34.1000 C   0  0  0  0  0  0  0  0  0  0  0  0
   27.9300   26.2600   33.8100 C   0  0  0  0  0  0  0  0  0  0  0  0
   27.5200   25.7100   32.6100 N   0  0  0  0  0  0  0  0  0  0  0  0
   24.0242   25.2801   36.4896 C   0  0  0  0  0  0  0  0  0  0  0  0
   23.1646   25.7780   37.3182 N   0  0  0  0  0  0  0  0  0  0  0  0
   22.8169   24.7635   38.2484 C   0  0  0  0  0  0  0  0  0  0  0  0
   23.4636   23.6362   37.9997 C   0  0  0  0  0  0  0  0  0  0  0  0
   23.3443   22.3648   38.8017 C   0  0  0  0  0  0  0  0  0  0  0  0
   21.9478   21.9150   39.0446 N   0  0  0  0  0  0  0  0  0  0  0  0
   21.9386   20.5339   39.5569 C   0  0  0  0  0  0  0  0  0  0  0  0
   20.9591   22.0838   37.9440 C   0  0  0  0  0  0  0  0  0  0  0  0
   21.4796   21.7516   36.5326 C   0  0  0  0  0  0  0  0  0  0  0  0
   21.7807   22.9653   35.8678 O   0  0  0  0  0  0  0  0  0  0  0  0
   22.8692   22.8248   34.9813 C   0  0  0  0  0  0  0  0  0  0  0  0
   24.2264   22.8105   35.7109 C   0  0  0  0  0  0  0  0  0  0  0  0
   24.3992   23.8576   36.8397 C   0  0  1  0  0  0  0  0  0  0  0  0
  1  2  1  0
  2  3  2  0
  2  4  1  0
  4  5  2  0
  5  6  1  0
  6  7  2  0
  7  8  1  0
  8  9  2  0
  9 10  1  0
 10 11  2  0
 11 12  1  0
 12 13  2  0
 13 14  1  0
  1 15  1  0
 15 16  2  0
 16 17  1  0
 17 18  2  0
 18 19  1  0
 19 20  1  0
 20 21  1  0
 20 22  1  0
 22 23  1  0
 23 24  1  0
 24 25  1  0
 25 26  1  0
 27 26  1  6
 13  4  1  0
 27 15  1  0
 12  7  1  0
 27 18  1  0
M  END
>  <AAScore>  (1) 
472.2354680984517

>  <RootName>  (1) 
./4ZLY/04_DeltaGEst/trajectory_02/rank_00/lead_0266

$$$$
