confid_8
     RDKit          3D

 27 30  0  0  0  0  0  0  0  0999 V2000
   24.4800   26.1000   36.1300 N   0  0  0  0  0  0  0  0  0  0  0  0
   25.2500   26.2500   34.9900 C   0  0  0  0  0  0  0  0  0  0  0  0
   24.7400   25.7600   33.9900 O   0  0  0  0  0  0  0  0  0  0  0  0
   26.5900   26.8900   34.9600 C   0  0  0  0  0  0  0  0  0  0  0  0
   27.0600   27.2400   36.1600 N   0  0  0  0  0  0  0  0  0  0  0  0
   28.3000   27.7100   36.2400 N   0  0  0  0  0  0  0  0  0  0  0  0
   29.0500   27.9600   35.1500 C   0  0  0  0  0  0  0  0  0  0  0  0
   30.3400   28.4900   35.2600 C   0  0  0  0  0  0  0  0  0  0  0  0
   31.1100   28.8200   34.1400 C   0  0  0  0  0  0  0  0  0  0  0  0
   30.5200   28.6700   32.8800 C   0  0  0  0  0  0  0  0  0  0  0  0
   29.2900   28.0200   32.7700 C   0  0  0  0  0  0  0  0  0  0  0  0
   28.5200   27.7100   33.8900 C   0  0  0  0  0  0  0  0  0  0  0  0
   27.2700   27.0800   33.7600 C   0  0  0  0  0  0  0  0  0  0  0  0
   26.7500   26.8800   32.4900 N   0  0  0  0  0  0  0  0  0  0  0  0
   23.5390   25.0298   36.3699 C   0  0  0  0  0  0  0  0  0  0  0  0
   23.4241   24.0046   35.4814 N   0  0  0  0  0  0  0  0  0  0  0  0
   22.5357   22.9932   35.6470 C   0  0  0  0  0  0  0  0  0  0  0  0
   21.6776   22.9806   36.7512 C   0  0  0  0  0  0  0  0  0  0  0  0
   20.7204   21.8257   36.9353 C   0  0  0  0  0  0  0  0  0  0  0  0
   19.6027   22.1447   37.8441 N   0  0  0  0  0  0  0  0  0  0  0  0
   20.0904   22.7310   39.1068 C   0  0  0  0  0  0  0  0  0  0  0  0
   20.8430   24.0530   38.8914 C   0  0  0  0  0  0  0  0  0  0  0  0
   21.7918   23.9989   37.7174 C   0  0  0  0  0  0  0  0  0  0  0  0
   22.7337   25.0295   37.5268 C   0  0  0  0  0  0  0  0  0  0  0  0
   22.8522   26.0513   38.4731 O   0  0  0  0  0  0  0  0  0  0  0  0
   23.8268   25.9939   39.5087 C   0  0  0  0  0  0  0  0  0  0  0  0
   18.5789   22.9779   37.1895 C   0  0  0  0  0  0  0  0  0  0  0  0
  1  2  1  0
  2  3  2  0
  2  4  1  0
  4  5  2  0
  5  6  1  0
  6  7  2  0
  7  8  1  0
  8  9  2  0
  9 10  1  0
 10 11  2  0
 11 12  1  0
 12 13  2  0
 13 14  1  0
  1 15  1  0
 15 16  2  0
 16 17  1  0
 17 18  2  0
 18 19  1  0
 19 20  1  0
 20 21  1  0
 21 22  1  0
 22 23  1  0
 23 24  2  0
 24 25  1  0
 25 26  1  0
 20 27  1  0
 13  4  1  0
 24 15  1  0
 12  7  1  0
 23 18  1  0
M  END
>  <AAScore>  (1) 
799.0717486044003

>  <RootName>  (1) 
./4ZLY/04_DeltaGEst/trajectory_00/rank_01/lead_0275

$$$$
