confid_10
     RDKit          3D

 27 30  0  0  0  0  0  0  0  0999 V2000
   24.4800   26.1000   36.1300 N   0  0  0  0  0  0  0  0  0  0  0  0
   25.2500   26.2500   34.9900 C   0  0  0  0  0  0  0  0  0  0  0  0
   24.7400   25.7600   33.9900 O   0  0  0  0  0  0  0  0  0  0  0  0
   26.5900   26.8900   34.9600 C   0  0  0  0  0  0  0  0  0  0  0  0
   27.0600   27.2400   36.1600 N   0  0  0  0  0  0  0  0  0  0  0  0
   28.3000   27.7100   36.2400 N   0  0  0  0  0  0  0  0  0  0  0  0
   29.0500   27.9600   35.1500 C   0  0  0  0  0  0  0  0  0  0  0  0
   30.3400   28.4900   35.2600 C   0  0  0  0  0  0  0  0  0  0  0  0
   31.1100   28.8200   34.1400 C   0  0  0  0  0  0  0  0  0  0  0  0
   30.5200   28.6700   32.8800 C   0  0  0  0  0  0  0  0  0  0  0  0
   29.2900   28.0200   32.7700 C   0  0  0  0  0  0  0  0  0  0  0  0
   28.5200   27.7100   33.8900 C   0  0  0  0  0  0  0  0  0  0  0  0
   27.2700   27.0800   33.7600 C   0  0  0  0  0  0  0  0  0  0  0  0
   26.7500   26.8800   32.4900 N   0  0  0  0  0  0  0  0  0  0  0  0
   23.4849   25.0773   36.3349 C   0  0  0  0  0  0  0  0  0  0  0  0
   23.4173   23.9960   35.5137 N   0  0  0  0  0  0  0  0  0  0  0  0
   22.5061   23.0068   35.6955 C   0  0  0  0  0  0  0  0  0  0  0  0
   21.5782   23.0704   36.7498 C   0  0  0  0  0  0  0  0  0  0  0  0
   20.6592   21.8885   36.9834 C   0  0  0  0  0  0  0  0  0  0  0  0
   19.2151   22.2186   36.9385 N   0  0  0  0  0  0  0  0  0  0  0  0
   18.7712   23.4300   37.6581 C   0  0  0  0  0  0  0  0  0  0  0  0
   19.5532   23.6525   38.9560 C   0  0  0  0  0  0  0  0  0  0  0  0
   20.7587   24.3727   38.7083 O   0  0  0  0  0  0  0  0  0  0  0  0
   21.6363   24.1818   37.6278 C   0  0  0  0  0  0  0  0  0  0  0  0
   22.6016   25.1713   37.4149 C   0  0  0  0  0  0  0  0  0  0  0  0
   18.5752   22.0545   35.6150 C   0  0  0  0  0  0  0  0  0  0  0  0
   19.1955   22.9210   34.5132 C   0  0  0  0  0  0  0  0  0  0  0  0
  1  2  1  0
  2  3  2  0
  2  4  1  0
  4  5  2  0
  5  6  1  0
  6  7  2  0
  7  8  1  0
  8  9  2  0
  9 10  1  0
 10 11  2  0
 11 12  1  0
 12 13  2  0
 13 14  1  0
  1 15  1  0
 15 16  2  0
 16 17  1  0
 17 18  2  0
 18 19  1  0
 19 20  1  0
 20 21  1  0
 21 22  1  0
 22 23  1  0
 23 24  1  0
 24 25  2  0
 20 26  1  0
 26 27  1  0
 13  4  1  0
 25 15  1  0
 12  7  1  0
 24 18  1  0
M  END
>  <AAScore>  (1) 
434.09325435852736

>  <RootName>  (1) 
./4ZLY/04_DeltaGEst/trajectory_00/rank_01/lead_0087

$$$$
