confid_7
     RDKit          3D

 29 32  0  0  0  0  0  0  0  0999 V2000
   25.3300   26.2600   34.7600 N   0  0  0  0  0  0  0  0  0  0  0  0
   26.1200   25.9200   33.6900 C   0  0  0  0  0  0  0  0  0  0  0  0
   25.6300   25.1100   32.9400 O   0  0  0  0  0  0  0  0  0  0  0  0
   27.5200   26.3800   33.4600 C   0  0  0  0  0  0  0  0  0  0  0  0
   28.1600   26.6300   34.6100 N   0  0  0  0  0  0  0  0  0  0  0  0
   29.4800   26.8500   34.5700 N   0  0  0  0  0  0  0  0  0  0  0  0
   30.1900   26.7800   33.4400 C   0  0  0  0  0  0  0  0  0  0  0  0
   31.5600   27.0500   33.5000 C   0  0  0  0  0  0  0  0  0  0  0  0
   32.2700   27.2400   32.3100 C   0  0  0  0  0  0  0  0  0  0  0  0
   31.6100   27.2500   31.0800 C   0  0  0  0  0  0  0  0  0  0  0  0
   30.2700   26.8700   31.0600 C   0  0  0  0  0  0  0  0  0  0  0  0
   29.5100   26.6900   32.2300 C   0  0  0  0  0  0  0  0  0  0  0  0
   28.1400   26.4100   32.2000 C   0  0  0  0  0  0  0  0  0  0  0  0
   27.4300   26.1300   31.0500 N   0  0  0  0  0  0  0  0  0  0  0  0
   27.5349   24.8119   30.4137 C   0  0  0  0  0  0  0  0  0  0  0  0
   27.6626   24.9593   28.8942 C   0  0  0  0  0  0  0  0  0  0  0  0
   26.6886   25.9354   28.3858 N   0  0  0  0  0  0  0  0  0  0  0  0
   25.9827   25.7116   27.1500 C   0  0  0  0  0  0  0  0  0  0  0  0
   24.7903   26.1076   27.0407 O   0  0  0  0  0  0  0  0  0  0  0  0
   26.6293   25.0508   25.9973 C   0  0  0  0  0  0  0  0  0  0  0  0
   25.9229   24.6081   24.8789 C   0  0  0  0  0  0  0  0  0  0  0  0
   27.0258   23.9339   23.8024 S   0  0  0  0  0  0  0  0  0  0  0  0
   28.3497   24.2550   24.7867 C   0  0  0  0  0  0  0  0  0  0  0  0
   27.9748   24.8516   25.9379 N   0  0  0  0  0  0  0  0  0  0  0  0
   29.7600   23.8637   24.4835 C   0  0  0  0  0  0  0  0  0  0  0  0
   30.0952   22.5209   25.1377 C   0  0  0  0  0  0  0  0  0  0  0  0
   31.5353   22.1107   24.8449 C   0  0  0  0  0  0  0  0  0  0  0  0
   26.6121   27.2495   29.0361 C   0  0  0  0  0  0  0  0  0  0  0  0
   26.4352   27.0791   30.5432 C   0  0  0  0  0  0  0  0  0  0  0  0
  1  2  1  0
  2  3  2  0
  2  4  1  0
  4  5  2  0
  5  6  1  0
  6  7  2  0
  7  8  1  0
  8  9  2  0
  9 10  1  0
 10 11  2  0
 11 12  1  0
 12 13  2  0
 13 14  1  0
 14 15  1  0
 15 16  1  0
 16 17  1  0
 17 18  1  0
 18 19  2  0
 18 20  1  0
 20 21  2  0
 21 22  1  0
 22 23  1  0
 23 24  2  0
 23 25  1  0
 25 26  1  0
 26 27  1  0
 17 28  1  0
 28 29  1  0
 13  4  1  0
 29 14  1  0
 12  7  1  0
 24 20  1  0
M  END
>  <AAScore>  (1) 
358.1639848223504

>  <RootName>  (1) 
./4ZLY/04_DeltaGEst/trajectory_03/rank_01/lead_0419

$$$$
