confid_4
     RDKit          3D

 28 31  0  0  0  0  0  0  0  0999 V2000
   24.5500   26.3900   36.2500 N   0  0  0  0  0  0  0  0  0  0  0  0
   25.6000   26.1300   35.4000 C   0  0  0  0  0  0  0  0  0  0  0  0
   25.4300   25.4300   34.4200 O   0  0  0  0  0  0  0  0  0  0  0  0
   26.9800   26.6300   35.7100 C   0  0  0  0  0  0  0  0  0  0  0  0
   27.3200   26.8200   36.9800 N   0  0  0  0  0  0  0  0  0  0  0  0
   28.4700   27.4000   37.3100 N   0  0  0  0  0  0  0  0  0  0  0  0
   29.4000   27.6300   36.3700 C   0  0  0  0  0  0  0  0  0  0  0  0
   30.6600   28.0500   36.8000 C   0  0  0  0  0  0  0  0  0  0  0  0
   31.5700   28.3600   35.7800 C   0  0  0  0  0  0  0  0  0  0  0  0
   31.3700   28.1000   34.4300 C   0  0  0  0  0  0  0  0  0  0  0  0
   30.1200   27.5900   34.0500 C   0  0  0  0  0  0  0  0  0  0  0  0
   29.1500   27.3400   35.0300 C   0  0  0  0  0  0  0  0  0  0  0  0
   27.8800   26.8900   34.6600 C   0  0  0  0  0  0  0  0  0  0  0  0
   27.4800   26.6100   33.3700 N   0  0  0  0  0  0  0  0  0  0  0  0
   30.9962   28.3110   38.2218 C   0  0  0  0  0  0  0  0  0  0  0  0
   30.7718   27.2649   39.1932 C   0  0  0  0  0  0  0  0  0  0  0  0
   31.1466   27.6677   40.4344 C   0  0  0  0  0  0  0  0  0  0  0  0
   31.5013   27.9785   41.7560 C   0  0  1  0  0  0  0  0  0  0  0  0
   32.7363   27.3183   42.1878 N   0  0  0  0  0  0  0  0  0  0  0  0
   32.7345   25.8650   42.3785 C   0  0  0  0  0  0  0  0  0  0  0  0
   33.8094   28.1080   42.7396 C   0  0  0  0  0  0  0  0  0  0  0  0
   33.5411   29.1855   43.3402 O   0  0  0  0  0  0  0  0  0  0  0  0
   35.1807   27.6909   42.6214 N   0  0  0  0  0  0  0  0  0  0  0  0
   36.1277   28.0323   43.6834 C   0  0  0  0  0  0  0  0  0  0  0  0
   35.6489   26.9492   41.4503 C   0  0  0  0  0  0  0  0  0  0  0  0
   31.7060   28.9691   40.7828 C   0  0  0  0  0  0  0  0  0  0  0  0
   31.9427   29.9896   39.9219 C   0  0  0  0  0  0  0  0  0  0  0  0
   31.5652   29.6213   38.5851 C   0  0  0  0  0  0  0  0  0  0  0  0
  1  2  1  0
  2  3  2  0
  2  4  1  0
  4  5  2  0
  5  6  1  0
  6  7  2  0
  7  8  1  0
  8  9  2  0
  9 10  1  0
 10 11  2  0
 11 12  1  0
 12 13  2  0
 13 14  1  0
  8 15  1  0
 15 16  2  0
 16 17  1  0
 17 18  1  0
 18 19  1  6
 19 20  1  0
 19 21  1  0
 21 22  2  0
 21 23  1  0
 23 24  1  0
 23 25  1  0
 18 26  1  0
 26 27  1  0
 27 28  2  0
 13  4  1  0
 28 15  1  0
 12  7  1  0
 26 17  2  0
M  END
>  <AAScore>  (1) 
122.68474701202082

>  <RootName>  (1) 
./4ZLY/04_DeltaGEst/trajectory_01/rank_01/lead_0233

$$$$
