confid_19
     RDKit          3D

 27 29  0  0  0  0  0  0  0  0999 V2000
   24.5700   26.8800   35.5900 N   0  0  0  0  0  0  0  0  0  0  0  0
   25.5000   26.4000   34.6900 C   0  0  0  0  0  0  0  0  0  0  0  0
   25.1700   25.5200   33.9100 O   0  0  0  0  0  0  0  0  0  0  0  0
   26.8400   27.0200   34.7400 C   0  0  0  0  0  0  0  0  0  0  0  0
   27.3800   27.2800   35.9400 N   0  0  0  0  0  0  0  0  0  0  0  0
   28.6200   27.7400   36.0300 N   0  0  0  0  0  0  0  0  0  0  0  0
   29.3800   28.0000   34.9600 C   0  0  0  0  0  0  0  0  0  0  0  0
   30.6700   28.5000   35.1300 C   0  0  0  0  0  0  0  0  0  0  0  0
   31.5400   28.6100   34.0300 C   0  0  0  0  0  0  0  0  0  0  0  0
   31.0900   28.2200   32.7700 C   0  0  0  0  0  0  0  0  0  0  0  0
   29.8000   27.7000   32.6000 C   0  0  0  0  0  0  0  0  0  0  0  0
   28.9600   27.5500   33.7100 C   0  0  0  0  0  0  0  0  0  0  0  0
   27.6600   27.0300   33.5900 C   0  0  0  0  0  0  0  0  0  0  0  0
   27.1600   26.7400   32.3400 N   0  0  0  0  0  0  0  0  0  0  0  0
   23.2153   26.4012   35.7225 C   0  0  0  0  0  0  0  0  0  0  0  0
   22.7431   25.4011   34.9292 N   0  0  0  0  0  0  0  0  0  0  0  0
   21.4704   24.9368   35.0237 C   0  0  0  0  0  0  0  0  0  0  0  0
   20.5822   25.4889   35.9647 C   0  0  0  0  0  0  0  0  0  0  0  0
   19.2533   25.0471   36.0985 O   0  0  0  0  0  0  0  0  0  0  0  0
   18.6005   24.1091   35.2430 C   0  0  0  0  0  0  0  0  0  0  0  0
   18.2395   24.7621   33.9037 C   0  0  0  0  0  0  0  0  0  0  0  0
   17.4962   23.8137   33.0461 N   0  0  0  0  0  0  0  0  0  0  0  0
   18.4218   22.9421   32.3004 C   0  0  0  0  0  0  0  0  0  0  0  0
   16.6449   24.5461   32.0946 C   0  0  0  0  0  0  0  0  0  0  0  0
   21.0461   26.5154   36.8056 C   0  0  0  0  0  0  0  0  0  0  0  0
   22.3656   26.9738   36.6777 C   0  0  0  0  0  0  0  0  0  0  0  0
   20.1278   27.1331   37.8224 C   0  0  0  0  0  0  0  0  0  0  0  0
  1  2  1  0
  2  3  2  0
  2  4  1  0
  4  5  2  0
  5  6  1  0
  6  7  2  0
  7  8  1  0
  8  9  2  0
  9 10  1  0
 10 11  2  0
 11 12  1  0
 12 13  2  0
 13 14  1  0
  1 15  1  0
 15 16  2  0
 16 17  1  0
 17 18  2  0
 18 19  1  0
 19 20  1  0
 20 21  1  0
 21 22  1  0
 22 23  1  0
 22 24  1  0
 18 25  1  0
 25 26  2  0
 25 27  1  0
 13  4  1  0
 26 15  1  0
 12  7  1  0
M  END
>  <AAScore>  (1) 
11250.067025941058

>  <RootName>  (1) 
./4ZLY/04_DeltaGEst/trajectory_05/rank_00/lead_0152

$$$$
