confid_14
     RDKit          3D

 28 31  0  0  0  0  0  0  0  0999 V2000
   24.6900   26.1200   35.5300 N   0  0  0  0  0  0  0  0  0  0  0  0
   25.6600   25.6700   34.6600 C   0  0  0  0  0  0  0  0  0  0  0  0
   25.2400   25.0100   33.7200 O   0  0  0  0  0  0  0  0  0  0  0  0
   27.0300   26.2200   34.8800 C   0  0  0  0  0  0  0  0  0  0  0  0
   27.3500   26.7300   36.0700 N   0  0  0  0  0  0  0  0  0  0  0  0
   28.5700   27.1800   36.3300 N   0  0  0  0  0  0  0  0  0  0  0  0
   29.5300   27.1100   35.3900 C   0  0  0  0  0  0  0  0  0  0  0  0
   30.8300   27.5700   35.6500 C   0  0  0  0  0  0  0  0  0  0  0  0
   31.8500   27.5400   34.6900 C   0  0  0  0  0  0  0  0  0  0  0  0
   31.5100   27.1200   33.4000 C   0  0  0  0  0  0  0  0  0  0  0  0
   30.2200   26.6300   33.1100 C   0  0  0  0  0  0  0  0  0  0  0  0
   29.2400   26.6600   34.1000 C   0  0  0  0  0  0  0  0  0  0  0  0
   27.9300   26.2600   33.8100 C   0  0  0  0  0  0  0  0  0  0  0  0
   27.5200   25.7100   32.6100 N   0  0  0  0  0  0  0  0  0  0  0  0
   31.1427   28.0721   36.9609 N   0  0  0  0  0  0  0  0  0  0  0  0
   30.5772   29.3614   37.4019 C   0  0  0  0  0  0  0  0  0  0  0  0
   30.0685   29.2702   38.8528 C   0  0  0  0  0  0  0  0  0  0  0  0
   31.0665   28.5378   39.7023 C   0  0  0  0  0  0  0  0  0  0  0  0
   32.0077   27.6854   39.1910 C   0  0  0  0  0  0  0  0  0  0  0  0
   32.2370   27.4583   37.7322 C   0  0  0  0  0  0  0  0  0  0  0  0
   32.6547   27.1485   40.2837 C   0  0  0  0  0  0  0  0  0  0  0  0
   32.0922   27.6454   41.4072 N   0  0  0  0  0  0  0  0  0  0  0  0
   31.1293   28.4860   41.0493 N   0  0  0  0  0  0  0  0  0  0  0  0
   30.2508   29.1562   42.0079 C   0  0  0  0  0  0  0  0  0  0  0  0
   29.0938   28.2443   42.4131 C   0  0  0  0  0  0  0  0  0  0  0  0
   28.3398   27.9070   41.3042 F   0  0  0  0  0  0  0  0  0  0  0  0
   29.5816   27.0906   43.0002 F   0  0  0  0  0  0  0  0  0  0  0  0
   28.2857   28.9029   43.3216 F   0  0  0  0  0  0  0  0  0  0  0  0
  1  2  1  0
  2  3  2  0
  2  4  1  0
  4  5  2  0
  5  6  1  0
  6  7  2  0
  7  8  1  0
  8  9  2  0
  9 10  1  0
 10 11  2  0
 11 12  1  0
 12 13  2  0
 13 14  1  0
  8 15  1  0
 15 16  1  0
 16 17  1  0
 17 18  1  0
 18 19  2  0
 19 20  1  0
 19 21  1  0
 21 22  2  0
 22 23  1  0
 23 24  1  0
 24 25  1  0
 25 26  1  0
 25 27  1  0
 25 28  1  0
 13  4  1  0
 20 15  1  0
 12  7  1  0
 23 18  1  0
M  END
>  <AAScore>  (1) 
7.395902466504864

>  <RootName>  (1) 
./4ZLY/04_DeltaGEst/trajectory_02/rank_01/lead_0425

$$$$
