confid_19
     RDKit          3D

 28 31  0  0  0  0  0  0  0  0999 V2000
   24.2000   26.2400   35.6900 N   0  0  0  0  0  0  0  0  0  0  0  0
   24.8500   26.2800   34.4800 C   0  0  0  0  0  0  0  0  0  0  0  0
   24.3100   25.7400   33.5400 O   0  0  0  0  0  0  0  0  0  0  0  0
   26.1800   26.9700   34.4700 C   0  0  0  0  0  0  0  0  0  0  0  0
   26.6500   27.6000   35.5500 N   0  0  0  0  0  0  0  0  0  0  0  0
   27.7900   28.2700   35.6200 N   0  0  0  0  0  0  0  0  0  0  0  0
   28.5400   28.3000   34.5100 C   0  0  0  0  0  0  0  0  0  0  0  0
   29.7700   28.9400   34.5600 C   0  0  0  0  0  0  0  0  0  0  0  0
   30.7000   28.8900   33.5000 C   0  0  0  0  0  0  0  0  0  0  0  0
   30.3700   28.1400   32.3700 C   0  0  0  0  0  0  0  0  0  0  0  0
   29.1200   27.5200   32.2800 C   0  0  0  0  0  0  0  0  0  0  0  0
   28.2100   27.6100   33.3300 C   0  0  0  0  0  0  0  0  0  0  0  0
   26.9700   26.9700   33.3100 C   0  0  0  0  0  0  0  0  0  0  0  0
   26.5300   26.2400   32.2200 N   0  0  0  0  0  0  0  0  0  0  0  0
   23.2240   25.2444   36.0556 C   0  0  0  0  0  0  0  0  0  0  0  0
   23.0492   24.1300   35.2970 N   0  0  0  0  0  0  0  0  0  0  0  0
   22.1477   23.1695   35.6211 C   0  0  0  0  0  0  0  0  0  0  0  0
   21.3569   23.2862   36.7759 C   0  0  0  0  0  0  0  0  0  0  0  0
   20.3103   22.2211   37.0132 C   0  0  0  0  0  0  0  0  0  0  0  0
   19.3336   22.2987   35.9886 O   0  0  0  0  0  0  0  0  0  0  0  0
   18.0817   22.7658   36.4633 C   0  0  2  0  0  0  0  0  0  0  0  0
   17.0676   22.6136   35.3287 C   0  0  0  0  0  0  0  0  0  0  0  0
   18.1599   24.2413   36.9158 C   0  0  0  0  0  0  0  0  0  0  0  0
   18.4411   24.2795   38.3025 O   0  0  0  0  0  0  0  0  0  0  0  0
   19.3826   25.2795   38.6341 C   0  0  0  0  0  0  0  0  0  0  0  0
   20.7583   24.6520   38.8860 C   0  0  0  0  0  0  0  0  0  0  0  0
   21.5325   24.4265   37.6041 C   0  0  0  0  0  0  0  0  0  0  0  0
   22.4673   25.4044   37.2214 C   0  0  0  0  0  0  0  0  0  0  0  0
  1  2  1  0
  2  3  2  0
  2  4  1  0
  4  5  2  0
  5  6  1  0
  6  7  2  0
  7  8  1  0
  8  9  2  0
  9 10  1  0
 10 11  2  0
 11 12  1  0
 12 13  2  0
 13 14  1  0
  1 15  1  0
 15 16  2  0
 16 17  1  0
 17 18  2  0
 18 19  1  0
 19 20  1  0
 20 21  1  0
 21 22  1  6
 21 23  1  0
 23 24  1  0
 24 25  1  0
 25 26  1  0
 26 27  1  0
 27 28  2  0
 13  4  1  0
 28 15  1  0
 12  7  1  0
 27 18  1  0
M  END
>  <AAScore>  (1) 
676.2590540269933

>  <RootName>  (1) 
./4ZLY/04_DeltaGEst/trajectory_04/rank_00/lead_0358

$$$$
