confid_3
     RDKit          3D

 27 30  0  0  0  0  0  0  0  0999 V2000
   25.3300   26.2600   34.7600 N   0  0  0  0  0  0  0  0  0  0  0  0
   26.1200   25.9200   33.6900 C   0  0  0  0  0  0  0  0  0  0  0  0
   25.6300   25.1100   32.9400 O   0  0  0  0  0  0  0  0  0  0  0  0
   27.5200   26.3800   33.4600 C   0  0  0  0  0  0  0  0  0  0  0  0
   28.1600   26.6300   34.6100 N   0  0  0  0  0  0  0  0  0  0  0  0
   29.4800   26.8500   34.5700 N   0  0  0  0  0  0  0  0  0  0  0  0
   30.1900   26.7800   33.4400 C   0  0  0  0  0  0  0  0  0  0  0  0
   31.5600   27.0500   33.5000 C   0  0  0  0  0  0  0  0  0  0  0  0
   32.2700   27.2400   32.3100 C   0  0  0  0  0  0  0  0  0  0  0  0
   31.6100   27.2500   31.0800 C   0  0  0  0  0  0  0  0  0  0  0  0
   30.2700   26.8700   31.0600 C   0  0  0  0  0  0  0  0  0  0  0  0
   29.5100   26.6900   32.2300 C   0  0  0  0  0  0  0  0  0  0  0  0
   28.1400   26.4100   32.2000 C   0  0  0  0  0  0  0  0  0  0  0  0
   27.4300   26.1300   31.0500 N   0  0  0  0  0  0  0  0  0  0  0  0
   23.9088   26.0513   34.8644 C   0  0  0  0  0  0  0  0  0  0  0  0
   23.1767   25.6180   33.7940 N   0  0  0  0  0  0  0  0  0  0  0  0
   21.8373   25.4559   33.9271 C   0  0  0  0  0  0  0  0  0  0  0  0
   20.8946   24.9777   32.9009 C   0  0  0  0  0  0  0  0  0  0  0  0
   19.5512   25.0993   33.5211 N   0  0  0  0  0  0  0  0  0  0  0  0
   19.7565   25.4246   34.9575 C   0  0  0  0  0  0  0  0  0  0  0  0
   21.2011   25.7098   35.0939 C   0  0  0  0  0  0  0  0  0  0  0  0
   21.9331   26.1524   36.1962 C   0  0  0  0  0  0  0  0  0  0  0  0
   23.2793   26.3189   36.0497 N   0  0  0  0  0  0  0  0  0  0  0  0
   21.2740   26.4462   37.5064 C   0  0  0  0  0  0  0  0  0  0  0  0
   18.7457   23.8788   33.3216 C   0  0  0  0  0  0  0  0  0  0  0  0
   17.2738   24.1394   33.6670 C   0  0  0  0  0  0  0  0  0  0  0  0
   16.4160   22.9070   33.3955 C   0  0  0  0  0  0  0  0  0  0  0  0
  1  2  1  0
  2  3  2  0
  2  4  1  0
  4  5  2  0
  5  6  1  0
  6  7  2  0
  7  8  1  0
  8  9  2  0
  9 10  1  0
 10 11  2  0
 11 12  1  0
 12 13  2  0
 13 14  1  0
  1 15  1  0
 15 16  2  0
 16 17  1  0
 17 18  1  0
 18 19  1  0
 19 20  1  0
 20 21  1  0
 21 22  1  0
 22 23  2  0
 22 24  1  0
 19 25  1  0
 25 26  1  0
 26 27  1  0
 13  4  1  0
 23 15  1  0
 12  7  1  0
 21 17  2  0
M  END
>  <AAScore>  (1) 
26401.279944454465

>  <RootName>  (1) 
./4ZLY/04_DeltaGEst/trajectory_03/rank_00/lead_0372

$$$$
