confid_13
     RDKit          3D

 28 31  0  0  0  0  0  0  0  0999 V2000
   25.3300   26.2600   34.7600 N   0  0  0  0  0  0  0  0  0  0  0  0
   26.1200   25.9200   33.6900 C   0  0  0  0  0  0  0  0  0  0  0  0
   25.6300   25.1100   32.9400 O   0  0  0  0  0  0  0  0  0  0  0  0
   27.5200   26.3800   33.4600 C   0  0  0  0  0  0  0  0  0  0  0  0
   28.1600   26.6300   34.6100 N   0  0  0  0  0  0  0  0  0  0  0  0
   29.4800   26.8500   34.5700 N   0  0  0  0  0  0  0  0  0  0  0  0
   30.1900   26.7800   33.4400 C   0  0  0  0  0  0  0  0  0  0  0  0
   31.5600   27.0500   33.5000 C   0  0  0  0  0  0  0  0  0  0  0  0
   32.2700   27.2400   32.3100 C   0  0  0  0  0  0  0  0  0  0  0  0
   31.6100   27.2500   31.0800 C   0  0  0  0  0  0  0  0  0  0  0  0
   30.2700   26.8700   31.0600 C   0  0  0  0  0  0  0  0  0  0  0  0
   29.5100   26.6900   32.2300 C   0  0  0  0  0  0  0  0  0  0  0  0
   28.1400   26.4100   32.2000 C   0  0  0  0  0  0  0  0  0  0  0  0
   27.4300   26.1300   31.0500 N   0  0  0  0  0  0  0  0  0  0  0  0
   27.6525   24.8558   30.3493 C   0  0  0  0  0  0  0  0  0  0  0  0
   26.9874   24.8505   28.9634 C   0  0  0  0  0  0  0  0  0  0  0  0
   27.1833   26.1447   28.2943 N   0  0  0  0  0  0  0  0  0  0  0  0
   27.4920   26.2007   26.8844 C   0  0  0  0  0  0  0  0  0  0  0  0
   28.3966   27.1592   26.3906 C   0  0  0  0  0  0  0  0  0  0  0  0
   28.6936   27.1888   25.0275 C   0  0  0  0  0  0  0  0  0  0  0  0
   28.1239   26.2932   24.1815 N   0  0  0  0  0  0  0  0  0  0  0  0
   27.2395   25.3553   24.6193 C   0  0  0  0  0  0  0  0  0  0  0  0
   26.6644   24.3767   23.6452 C   0  0  0  0  0  0  0  0  0  0  0  0
   27.5394   23.2759   23.5398 O   0  0  0  0  0  0  0  0  0  0  0  0
   27.0323   22.3600   22.5926 C   0  0  0  0  0  0  0  0  0  0  0  0
   26.9209   25.2830   25.9832 C   0  0  0  0  0  0  0  0  0  0  0  0
   26.9187   27.3986   29.0260 C   0  0  0  0  0  0  0  0  0  0  0  0
   26.5263   27.1335   30.4814 C   0  0  0  0  0  0  0  0  0  0  0  0
  1  2  1  0
  2  3  2  0
  2  4  1  0
  4  5  2  0
  5  6  1  0
  6  7  2  0
  7  8  1  0
  8  9  2  0
  9 10  1  0
 10 11  2  0
 11 12  1  0
 12 13  2  0
 13 14  1  0
 14 15  1  0
 15 16  1  0
 16 17  1  0
 17 18  1  0
 18 19  2  0
 19 20  1  0
 20 21  2  0
 21 22  1  0
 22 23  1  0
 23 24  1  0
 24 25  1  0
 22 26  2  0
 17 27  1  0
 27 28  1  0
 13  4  1  0
 28 14  1  0
 12  7  1  0
 26 18  1  0
M  END
>  <AAScore>  (1) 
-2.1972519675338407

>  <RootName>  (1) 
./4ZLY/04_DeltaGEst/trajectory_03/rank_01/lead_0491

$$$$
