confid_15
     RDKit          3D

 28 31  0  0  0  0  0  0  0  0999 V2000
   24.6900   26.1200   35.5300 N   0  0  0  0  0  0  0  0  0  0  0  0
   25.6600   25.6700   34.6600 C   0  0  0  0  0  0  0  0  0  0  0  0
   25.2400   25.0100   33.7200 O   0  0  0  0  0  0  0  0  0  0  0  0
   27.0300   26.2200   34.8800 C   0  0  0  0  0  0  0  0  0  0  0  0
   27.3500   26.7300   36.0700 N   0  0  0  0  0  0  0  0  0  0  0  0
   28.5700   27.1800   36.3300 N   0  0  0  0  0  0  0  0  0  0  0  0
   29.5300   27.1100   35.3900 C   0  0  0  0  0  0  0  0  0  0  0  0
   30.8300   27.5700   35.6500 C   0  0  0  0  0  0  0  0  0  0  0  0
   31.8500   27.5400   34.6900 C   0  0  0  0  0  0  0  0  0  0  0  0
   31.5100   27.1200   33.4000 C   0  0  0  0  0  0  0  0  0  0  0  0
   30.2200   26.6300   33.1100 C   0  0  0  0  0  0  0  0  0  0  0  0
   29.2400   26.6600   34.1000 C   0  0  0  0  0  0  0  0  0  0  0  0
   27.9300   26.2600   33.8100 C   0  0  0  0  0  0  0  0  0  0  0  0
   27.5200   25.7100   32.6100 N   0  0  0  0  0  0  0  0  0  0  0  0
   23.3112   25.7187   35.4544 C   0  0  0  0  0  0  0  0  0  0  0  0
   22.6527   25.9038   34.3382 N   0  0  0  0  0  0  0  0  0  0  0  0
   21.2929   25.4744   34.1635 C   0  0  0  0  0  0  0  0  0  0  0  0
   20.6137   25.0691   35.2319 C   0  0  0  0  0  0  0  0  0  0  0  0
   19.4628   24.3450   35.2275 O   0  0  0  0  0  0  0  0  0  0  0  0
   19.2779   23.8373   36.5390 C   0  0  0  0  0  0  0  0  0  0  0  0
   20.3834   24.2404   37.3480 O   0  0  0  0  0  0  0  0  0  0  0  0
   21.1130   25.2095   36.6092 C   0  0  2  0  0  0  0  0  0  0  0  0
   20.7593   26.6244   37.1445 C   0  0  0  0  0  0  0  0  0  0  0  0
   19.3791   26.8854   36.9774 O   0  0  0  0  0  0  0  0  0  0  0  0
   19.1051   28.2238   37.3300 C   0  0  0  0  0  0  0  0  0  0  0  0
   22.6656   24.9280   36.6098 C   0  0  0  0  0  0  0  0  0  0  0  0
   23.3026   25.2994   37.9700 C   0  0  0  0  0  0  0  0  0  0  0  0
   22.9437   23.4255   36.3559 C   0  0  0  0  0  0  0  0  0  0  0  0
  1  2  1  0
  2  3  2  0
  2  4  1  0
  4  5  2  0
  5  6  1  0
  6  7  2  0
  7  8  1  0
  8  9  2  0
  9 10  1  0
 10 11  2  0
 11 12  1  0
 12 13  2  0
 13 14  1  0
  1 15  1  0
 15 16  2  0
 16 17  1  0
 17 18  2  0
 18 19  1  0
 19 20  1  0
 20 21  1  0
 21 22  1  0
 22 23  1  1
 23 24  1  0
 24 25  1  0
 22 26  1  0
 26 27  1  0
 26 28  1  0
 13  4  1  0
 26 15  1  0
 12  7  1  0
 22 18  1  0
M  END
>  <AAScore>  (1) 
4862.667798675912

>  <RootName>  (1) 
./4ZLY/04_DeltaGEst/trajectory_02/rank_00/lead_0487

$$$$
