confid_1
     RDKit          3D

 27 30  0  0  0  0  0  0  0  0999 V2000
   24.4800   26.1000   36.1300 N   0  0  0  0  0  0  0  0  0  0  0  0
   25.2500   26.2500   34.9900 C   0  0  0  0  0  0  0  0  0  0  0  0
   24.7400   25.7600   33.9900 O   0  0  0  0  0  0  0  0  0  0  0  0
   26.5900   26.8900   34.9600 C   0  0  0  0  0  0  0  0  0  0  0  0
   27.0600   27.2400   36.1600 N   0  0  0  0  0  0  0  0  0  0  0  0
   28.3000   27.7100   36.2400 N   0  0  0  0  0  0  0  0  0  0  0  0
   29.0500   27.9600   35.1500 C   0  0  0  0  0  0  0  0  0  0  0  0
   30.3400   28.4900   35.2600 C   0  0  0  0  0  0  0  0  0  0  0  0
   31.1100   28.8200   34.1400 C   0  0  0  0  0  0  0  0  0  0  0  0
   30.5200   28.6700   32.8800 C   0  0  0  0  0  0  0  0  0  0  0  0
   29.2900   28.0200   32.7700 C   0  0  0  0  0  0  0  0  0  0  0  0
   28.5200   27.7100   33.8900 C   0  0  0  0  0  0  0  0  0  0  0  0
   27.2700   27.0800   33.7600 C   0  0  0  0  0  0  0  0  0  0  0  0
   26.7500   26.8800   32.4900 N   0  0  0  0  0  0  0  0  0  0  0  0
   23.0634   25.8342   36.1417 C   0  0  0  0  0  0  0  0  0  0  0  0
   22.2779   25.8562   35.0465 N   0  0  0  0  0  0  0  0  0  0  0  0
   21.0392   25.6202   35.5291 C   0  0  0  0  0  0  0  0  0  0  0  0
   19.8313   25.5455   34.6429 C   0  0  0  0  0  0  0  0  0  0  0  0
   18.8820   26.6617   34.8748 N   0  0  0  0  0  0  0  0  0  0  0  0
   18.5781   26.9273   36.3075 C   0  0  0  0  0  0  0  0  0  0  0  0
   18.4929   25.6518   37.1674 C   0  0  0  0  0  0  0  0  0  0  0  0
   19.8536   25.2198   37.7542 C   0  0  0  0  0  0  0  0  0  0  0  0
   21.0085   25.4799   36.8770 N   0  0  0  0  0  0  0  0  0  0  0  0
   22.2977   25.5839   37.2649 C   0  0  0  0  0  0  0  0  0  0  0  0
   22.7848   25.5223   38.6837 C   0  0  0  0  0  0  0  0  0  0  0  0
   19.3360   27.8913   34.1846 C   0  0  0  0  0  0  0  0  0  0  0  0
   18.2037   28.9095   34.0493 C   0  0  0  0  0  0  0  0  0  0  0  0
  1  2  1  0
  2  3  2  0
  2  4  1  0
  4  5  2  0
  5  6  1  0
  6  7  2  0
  7  8  1  0
  8  9  2  0
  9 10  1  0
 10 11  2  0
 11 12  1  0
 12 13  2  0
 13 14  1  0
  1 15  1  0
 15 16  1  0
 16 17  2  0
 17 18  1  0
 18 19  1  0
 19 20  1  0
 20 21  1  0
 21 22  1  0
 22 23  1  0
 23 24  1  0
 24 25  1  0
 19 26  1  0
 26 27  1  0
 13  4  1  0
 24 15  2  0
 12  7  1  0
 23 17  1  0
M  END
>  <AAScore>  (1) 
2060.47561168938

>  <RootName>  (1) 
./4ZLY/04_DeltaGEst/trajectory_00/rank_01/lead_0128

$$$$
