confid_18
     RDKit          3D

 30 34  0  0  0  0  0  0  0  0999 V2000
   25.3300   26.2600   34.7600 N   0  0  0  0  0  0  0  0  0  0  0  0
   26.1200   25.9200   33.6900 C   0  0  0  0  0  0  0  0  0  0  0  0
   25.6300   25.1100   32.9400 O   0  0  0  0  0  0  0  0  0  0  0  0
   27.5200   26.3800   33.4600 C   0  0  0  0  0  0  0  0  0  0  0  0
   28.1600   26.6300   34.6100 N   0  0  0  0  0  0  0  0  0  0  0  0
   29.4800   26.8500   34.5700 N   0  0  0  0  0  0  0  0  0  0  0  0
   30.1900   26.7800   33.4400 C   0  0  0  0  0  0  0  0  0  0  0  0
   31.5600   27.0500   33.5000 C   0  0  0  0  0  0  0  0  0  0  0  0
   32.2700   27.2400   32.3100 C   0  0  0  0  0  0  0  0  0  0  0  0
   31.6100   27.2500   31.0800 C   0  0  0  0  0  0  0  0  0  0  0  0
   30.2700   26.8700   31.0600 C   0  0  0  0  0  0  0  0  0  0  0  0
   29.5100   26.6900   32.2300 C   0  0  0  0  0  0  0  0  0  0  0  0
   28.1400   26.4100   32.2000 C   0  0  0  0  0  0  0  0  0  0  0  0
   27.4300   26.1300   31.0500 N   0  0  0  0  0  0  0  0  0  0  0  0
   23.9247   25.9539   34.8645 C   0  0  0  0  0  0  0  0  0  0  0  0
   23.2018   25.9994   33.7764 N   0  0  0  0  0  0  0  0  0  0  0  0
   21.8361   25.6793   33.4691 C   0  0  0  0  0  0  0  0  0  0  0  0
   21.1565   24.7179   34.0833 C   0  0  0  0  0  0  0  0  0  0  0  0
   20.1729   23.6605   33.6740 C   0  0  0  0  0  0  0  0  0  0  0  0
   20.2996   22.9101   34.8415 O   0  0  0  0  0  0  0  0  0  0  0  0
   21.1202   23.9124   35.3452 C   0  0  1  0  0  0  0  0  0  0  0  0
   22.5108   23.4359   35.7724 C   0  0  0  0  0  0  0  0  0  0  0  0
   23.0606   24.4964   36.6935 C   0  0  0  0  0  0  0  0  0  0  0  0
   23.3815   25.7290   36.2314 C   0  0  0  0  0  0  0  0  0  0  0  0
   23.5432   26.8408   37.2337 C   0  0  0  0  0  0  0  0  0  0  0  0
   22.4835   26.6783   38.3232 C   0  0  0  0  0  0  0  0  0  0  0  0
   22.6744   25.3959   39.0314 N   0  0  0  0  0  0  0  0  0  0  0  0
   23.0460   24.2233   38.1922 C   0  0  0  0  0  0  0  0  0  0  0  0
   21.6358   25.1111   40.0486 C   0  0  0  0  0  0  0  0  0  0  0  0
   20.2384   24.8883   39.4523 C   0  0  0  0  0  0  0  0  0  0  0  0
  1  2  1  0
  2  3  2  0
  2  4  1  0
  4  5  2  0
  5  6  1  0
  6  7  2  0
  7  8  1  0
  8  9  2  0
  9 10  1  0
 10 11  2  0
 11 12  1  0
 12 13  2  0
 13 14  1  0
  1 15  1  0
 15 16  2  0
 16 17  1  0
 17 18  2  0
 18 19  1  0
 19 20  1  0
 20 21  1  0
 21 22  1  6
 22 23  1  0
 23 24  2  0
 24 25  1  0
 25 26  1  0
 26 27  1  0
 27 28  1  0
 27 29  1  0
 29 30  1  0
 13  4  1  0
 24 15  1  0
 12  7  1  0
 21 18  1  0
 28 23  1  0
M  END
>  <AAScore>  (1) 
4247.3273840237625

>  <RootName>  (1) 
./4ZLY/04_DeltaGEst/trajectory_03/rank_00/lead_0209

$$$$
