confid_10
     RDKit          3D

 26 28  0  0  0  0  0  0  0  0999 V2000
   24.5700   26.8800   35.5900 N   0  0  0  0  0  0  0  0  0  0  0  0
   25.5000   26.4000   34.6900 C   0  0  0  0  0  0  0  0  0  0  0  0
   25.1700   25.5200   33.9100 O   0  0  0  0  0  0  0  0  0  0  0  0
   26.8400   27.0200   34.7400 C   0  0  0  0  0  0  0  0  0  0  0  0
   27.3800   27.2800   35.9400 N   0  0  0  0  0  0  0  0  0  0  0  0
   28.6200   27.7400   36.0300 N   0  0  0  0  0  0  0  0  0  0  0  0
   29.3800   28.0000   34.9600 C   0  0  0  0  0  0  0  0  0  0  0  0
   30.6700   28.5000   35.1300 C   0  0  0  0  0  0  0  0  0  0  0  0
   31.5400   28.6100   34.0300 C   0  0  0  0  0  0  0  0  0  0  0  0
   31.0900   28.2200   32.7700 C   0  0  0  0  0  0  0  0  0  0  0  0
   29.8000   27.7000   32.6000 C   0  0  0  0  0  0  0  0  0  0  0  0
   28.9600   27.5500   33.7100 C   0  0  0  0  0  0  0  0  0  0  0  0
   27.6600   27.0300   33.5900 C   0  0  0  0  0  0  0  0  0  0  0  0
   27.1600   26.7400   32.3400 N   0  0  0  0  0  0  0  0  0  0  0  0
   23.1480   26.7025   35.4659 C   0  0  0  0  0  0  0  0  0  0  0  0
   22.3910   26.6337   36.5935 N   0  0  0  0  0  0  0  0  0  0  0  0
   21.0373   26.4999   36.5359 C   0  0  0  0  0  0  0  0  0  0  0  0
   20.2708   26.4163   37.7033 O   0  0  0  0  0  0  0  0  0  0  0  0
   20.8097   26.5443   39.0190 C   0  0  0  0  0  0  0  0  0  0  0  0
   20.9644   28.0143   39.4057 C   0  0  0  0  0  0  0  0  0  0  0  0
   19.7492   28.6629   39.2795 F   0  0  0  0  0  0  0  0  0  0  0  0
   21.3877   28.1025   40.7191 F   0  0  0  0  0  0  0  0  0  0  0  0
   21.8963   28.6326   38.5928 F   0  0  0  0  0  0  0  0  0  0  0  0
   20.4177   26.4411   35.3288 N   0  0  0  0  0  0  0  0  0  0  0  0
   21.1267   26.5239   34.1740 C   0  0  0  0  0  0  0  0  0  0  0  0
   22.5128   26.6663   34.2150 C   0  0  0  0  0  0  0  0  0  0  0  0
  1  2  1  0
  2  3  2  0
  2  4  1  0
  4  5  2  0
  5  6  1  0
  6  7  2  0
  7  8  1  0
  8  9  2  0
  9 10  1  0
 10 11  2  0
 11 12  1  0
 12 13  2  0
 13 14  1  0
  1 15  1  0
 15 16  2  0
 16 17  1  0
 17 18  1  0
 18 19  1  0
 19 20  1  0
 20 21  1  0
 20 22  1  0
 20 23  1  0
 17 24  2  0
 24 25  1  0
 25 26  2  0
 13  4  1  0
 26 15  1  0
 12  7  1  0
M  END
>  <AAScore>  (1) 
90.67620508322337

>  <RootName>  (1) 
./4ZLY/04_DeltaGEst/trajectory_05/rank_00/lead_0273

$$$$
