confid_18
     RDKit          3D

 27 30  0  0  0  0  0  0  0  0999 V2000
   24.6900   26.1200   35.5300 N   0  0  0  0  0  0  0  0  0  0  0  0
   25.6600   25.6700   34.6600 C   0  0  0  0  0  0  0  0  0  0  0  0
   25.2400   25.0100   33.7200 O   0  0  0  0  0  0  0  0  0  0  0  0
   27.0300   26.2200   34.8800 C   0  0  0  0  0  0  0  0  0  0  0  0
   27.3500   26.7300   36.0700 N   0  0  0  0  0  0  0  0  0  0  0  0
   28.5700   27.1800   36.3300 N   0  0  0  0  0  0  0  0  0  0  0  0
   29.5300   27.1100   35.3900 C   0  0  0  0  0  0  0  0  0  0  0  0
   30.8300   27.5700   35.6500 C   0  0  0  0  0  0  0  0  0  0  0  0
   31.8500   27.5400   34.6900 C   0  0  0  0  0  0  0  0  0  0  0  0
   31.5100   27.1200   33.4000 C   0  0  0  0  0  0  0  0  0  0  0  0
   30.2200   26.6300   33.1100 C   0  0  0  0  0  0  0  0  0  0  0  0
   29.2400   26.6600   34.1000 C   0  0  0  0  0  0  0  0  0  0  0  0
   27.9300   26.2600   33.8100 C   0  0  0  0  0  0  0  0  0  0  0  0
   27.5200   25.7100   32.6100 N   0  0  0  0  0  0  0  0  0  0  0  0
   23.3165   26.3602   35.1739 C   0  0  0  0  0  0  0  0  0  0  0  0
   22.3413   26.2050   36.1473 N   0  0  0  0  0  0  0  0  0  0  0  0
   21.0035   26.4200   35.9249 C   0  0  0  0  0  0  0  0  0  0  0  0
   20.6624   26.8220   34.6549 C   0  0  0  0  0  0  0  0  0  0  0  0
   19.5744   27.1976   33.7980 O   0  0  0  0  0  0  0  0  0  0  0  0
   20.5279   27.3674   32.7994 C   0  0  2  0  0  0  0  0  0  0  0  0
   20.5976   28.8320   32.3409 C   0  0  0  0  0  0  0  0  0  0  0  0
   20.3015   26.3720   31.6436 C   0  0  0  0  0  0  0  0  0  0  0  0
   21.4210   26.4446   30.6723 N   0  0  0  0  0  0  0  0  0  0  0  0
   20.9337   26.7499   29.3177 C   0  0  0  0  0  0  0  0  0  0  0  0
   22.1985   25.1938   30.6534 C   0  0  0  0  0  0  0  0  0  0  0  0
   21.6185   27.0017   33.6564 C   0  0  0  0  0  0  0  0  0  0  0  0
   22.9660   26.7983   33.8618 C   0  0  0  0  0  0  0  0  0  0  0  0
  1  2  1  0
  2  3  2  0
  2  4  1  0
  4  5  2  0
  5  6  1  0
  6  7  2  0
  7  8  1  0
  8  9  2  0
  9 10  1  0
 10 11  2  0
 11 12  1  0
 12 13  2  0
 13 14  1  0
  1 15  1  0
 15 16  2  0
 16 17  1  0
 17 18  2  0
 18 19  1  0
 19 20  1  0
 20 21  1  6
 20 22  1  0
 22 23  1  0
 23 24  1  0
 23 25  1  0
 20 26  1  0
 26 27  2  0
 13  4  1  0
 27 15  1  0
 12  7  1  0
 26 18  1  0
M  END
>  <AAScore>  (1) 
2346.114203245671

>  <RootName>  (1) 
./4ZLY/04_DeltaGEst/trajectory_02/rank_00/lead_0170

$$$$
