confid_5
     RDKit          3D

 25 27  0  0  0  0  0  0  0  0999 V2000
   24.5500   26.3900   36.2500 N   0  0  0  0  0  0  0  0  0  0  0  0
   25.6000   26.1300   35.4000 C   0  0  0  0  0  0  0  0  0  0  0  0
   25.4300   25.4300   34.4200 O   0  0  0  0  0  0  0  0  0  0  0  0
   26.9800   26.6300   35.7100 C   0  0  0  0  0  0  0  0  0  0  0  0
   27.3200   26.8200   36.9800 N   0  0  0  0  0  0  0  0  0  0  0  0
   28.4700   27.4000   37.3100 N   0  0  0  0  0  0  0  0  0  0  0  0
   29.4000   27.6300   36.3700 C   0  0  0  0  0  0  0  0  0  0  0  0
   30.6600   28.0500   36.8000 C   0  0  0  0  0  0  0  0  0  0  0  0
   31.5700   28.3600   35.7800 C   0  0  0  0  0  0  0  0  0  0  0  0
   31.3700   28.1000   34.4300 C   0  0  0  0  0  0  0  0  0  0  0  0
   30.1200   27.5900   34.0500 C   0  0  0  0  0  0  0  0  0  0  0  0
   29.1500   27.3400   35.0300 C   0  0  0  0  0  0  0  0  0  0  0  0
   27.8800   26.8900   34.6600 C   0  0  0  0  0  0  0  0  0  0  0  0
   27.4800   26.6100   33.3700 N   0  0  0  0  0  0  0  0  0  0  0  0
   30.9667   28.3050   38.1811 N   0  0  0  0  0  0  0  0  0  0  0  0
   30.2611   29.3629   38.9141 C   0  0  0  0  0  0  0  0  0  0  0  0
   29.7978   28.8743   40.3152 C   0  0  1  0  0  0  0  0  0  0  0  0
   30.5962   27.6126   40.7808 C   0  0  2  0  0  0  0  0  0  0  0  0
   30.4714   27.2512   42.5408 S   0  0  0  0  0  6  0  0  0  0  0  0
   29.0340   27.3347   42.9724 O   0  0  0  0  0  0  0  0  0  0  0  0
   31.2905   28.2286   43.3367 O   0  0  0  0  0  0  0  0  0  0  0  0
   31.0606   25.6030   42.8678 C   0  0  0  0  0  0  0  0  0  0  0  0
   32.0623   27.6936   40.3252 C   0  0  0  0  0  0  0  0  0  0  0  0
   32.1375   27.6588   38.7895 C   0  0  0  0  0  0  0  0  0  0  0  0
   29.8527   30.0554   41.3025 C   0  0  0  0  0  0  0  0  0  0  0  0
  1  2  1  0
  2  3  2  0
  2  4  1  0
  4  5  2  0
  5  6  1  0
  6  7  2  0
  7  8  1  0
  8  9  2  0
  9 10  1  0
 10 11  2  0
 11 12  1  0
 12 13  2  0
 13 14  1  0
  8 15  1  0
 15 16  1  0
 16 17  1  0
 17 18  1  0
 18 19  1  1
 19 20  2  0
 19 21  2  0
 19 22  1  0
 18 23  1  0
 23 24  1  0
 17 25  1  1
 13  4  1  0
 24 15  1  0
 12  7  1  0
M  END
>  <AAScore>  (1) 
8.762067747740614

>  <RootName>  (1) 
./4ZLY/04_DeltaGEst/trajectory_01/rank_01/lead_0484

$$$$
