confid_1
     RDKit          3D

 27 30  0  0  0  0  0  0  0  0999 V2000
   24.2000   26.2400   35.6900 N   0  0  0  0  0  0  0  0  0  0  0  0
   24.8500   26.2800   34.4800 C   0  0  0  0  0  0  0  0  0  0  0  0
   24.3100   25.7400   33.5400 O   0  0  0  0  0  0  0  0  0  0  0  0
   26.1800   26.9700   34.4700 C   0  0  0  0  0  0  0  0  0  0  0  0
   26.6500   27.6000   35.5500 N   0  0  0  0  0  0  0  0  0  0  0  0
   27.7900   28.2700   35.6200 N   0  0  0  0  0  0  0  0  0  0  0  0
   28.5400   28.3000   34.5100 C   0  0  0  0  0  0  0  0  0  0  0  0
   29.7700   28.9400   34.5600 C   0  0  0  0  0  0  0  0  0  0  0  0
   30.7000   28.8900   33.5000 C   0  0  0  0  0  0  0  0  0  0  0  0
   30.3700   28.1400   32.3700 C   0  0  0  0  0  0  0  0  0  0  0  0
   29.1200   27.5200   32.2800 C   0  0  0  0  0  0  0  0  0  0  0  0
   28.2100   27.6100   33.3300 C   0  0  0  0  0  0  0  0  0  0  0  0
   26.9700   26.9700   33.3100 C   0  0  0  0  0  0  0  0  0  0  0  0
   26.5300   26.2400   32.2200 N   0  0  0  0  0  0  0  0  0  0  0  0
   22.7733   26.1367   35.8468 C   0  0  0  0  0  0  0  0  0  0  0  0
   22.2745   25.5569   36.9723 N   0  0  0  0  0  0  0  0  0  0  0  0
   20.9397   25.4432   37.1998 C   0  0  0  0  0  0  0  0  0  0  0  0
   20.0207   25.9290   36.2618 C   0  0  0  0  0  0  0  0  0  0  0  0
   18.5384   25.8655   36.5408 C   0  0  0  0  0  0  0  0  0  0  0  0
   17.7371   25.7691   35.2374 C   0  0  0  0  0  0  0  0  0  0  0  0
   18.1294   26.8396   34.3112 N   0  0  0  0  0  0  0  0  0  0  0  0
   19.5320   27.1155   34.1333 C   0  0  0  0  0  0  0  0  0  0  0  0
   19.9259   27.8257   33.1677 O   0  0  0  0  0  0  0  0  0  0  0  0
   20.5025   26.5690   35.1053 C   0  0  0  0  0  0  0  0  0  0  0  0
   21.8858   26.6756   34.8989 C   0  0  0  0  0  0  0  0  0  0  0  0
   17.1167   27.5165   33.4927 C   0  0  0  0  0  0  0  0  0  0  0  0
   16.9216   26.7812   32.1716 C   0  0  0  0  0  0  0  0  0  0  0  0
  1  2  1  0
  2  3  2  0
  2  4  1  0
  4  5  2  0
  5  6  1  0
  6  7  2  0
  7  8  1  0
  8  9  2  0
  9 10  1  0
 10 11  2  0
 11 12  1  0
 12 13  2  0
 13 14  1  0
  1 15  1  0
 15 16  2  0
 16 17  1  0
 17 18  2  0
 18 19  1  0
 19 20  1  0
 20 21  1  0
 21 22  1  0
 22 23  2  0
 22 24  1  0
 24 25  2  0
 21 26  1  0
 26 27  1  0
 13  4  1  0
 25 15  1  0
 12  7  1  0
 24 18  1  0
M  END
>  <AAScore>  (1) 
691.4388238382724

>  <RootName>  (1) 
./4ZLY/04_DeltaGEst/trajectory_04/rank_00/lead_0265

$$$$
