confid_4
     RDKit          3D

 29 33  0  0  0  0  0  0  0  0999 V2000
   24.5700   26.8800   35.5900 N   0  0  0  0  0  0  0  0  0  0  0  0
   25.5000   26.4000   34.6900 C   0  0  0  0  0  0  0  0  0  0  0  0
   25.1700   25.5200   33.9100 O   0  0  0  0  0  0  0  0  0  0  0  0
   26.8400   27.0200   34.7400 C   0  0  0  0  0  0  0  0  0  0  0  0
   27.3800   27.2800   35.9400 N   0  0  0  0  0  0  0  0  0  0  0  0
   28.6200   27.7400   36.0300 N   0  0  0  0  0  0  0  0  0  0  0  0
   29.3800   28.0000   34.9600 C   0  0  0  0  0  0  0  0  0  0  0  0
   30.6700   28.5000   35.1300 C   0  0  0  0  0  0  0  0  0  0  0  0
   31.5400   28.6100   34.0300 C   0  0  0  0  0  0  0  0  0  0  0  0
   31.0900   28.2200   32.7700 C   0  0  0  0  0  0  0  0  0  0  0  0
   29.8000   27.7000   32.6000 C   0  0  0  0  0  0  0  0  0  0  0  0
   28.9600   27.5500   33.7100 C   0  0  0  0  0  0  0  0  0  0  0  0
   27.6600   27.0300   33.5900 C   0  0  0  0  0  0  0  0  0  0  0  0
   27.1600   26.7400   32.3400 N   0  0  0  0  0  0  0  0  0  0  0  0
   23.3037   26.2669   35.8998 C   0  0  0  0  0  0  0  0  0  0  0  0
   22.8199   25.3696   35.0837 N   0  0  0  0  0  0  0  0  0  0  0  0
   21.6624   24.5648   35.2677 C   0  0  0  0  0  0  0  0  0  0  0  0
   21.7232   23.6659   36.2241 C   0  0  0  0  0  0  0  0  0  0  0  0
   22.5217   23.1559   37.4113 C   0  0  1  0  0  0  0  0  0  0  0  0
   22.6203   24.2721   38.4729 C   0  0  0  0  0  0  0  0  0  0  0  0
   21.5251   25.2577   38.3941 N   0  0  0  0  0  0  0  0  0  0  0  0
   20.2549   24.9619   39.0745 C   0  0  0  0  0  0  0  0  0  0  0  0
   19.8267   26.1247   39.9759 C   0  0  0  0  0  0  0  0  0  0  0  0
   19.7896   27.4065   39.2460 N   0  0  0  0  0  0  0  0  0  0  0  0
   18.7180   27.4580   38.2358 C   0  0  0  0  0  0  0  0  0  0  0  0
   21.1044   27.7404   38.6682 C   0  0  0  0  0  0  0  0  0  0  0  0
   21.7059   26.6003   37.8828 C   0  0  0  0  0  0  0  0  0  0  0  0
   22.4986   26.9319   36.8969 N   0  0  0  0  0  0  0  0  0  0  0  0
   21.2882   22.4946   37.1065 C   0  0  0  0  0  0  0  0  0  0  0  0
  1  2  1  0
  2  3  2  0
  2  4  1  0
  4  5  2  0
  5  6  1  0
  6  7  2  0
  7  8  1  0
  8  9  2  0
  9 10  1  0
 10 11  2  0
 11 12  1  0
 12 13  2  0
 13 14  1  0
  1 15  1  0
 15 16  2  0
 16 17  1  0
 17 18  2  0
 18 19  1  0
 19 20  1  1
 20 21  1  0
 21 22  1  0
 22 23  1  0
 23 24  1  0
 24 25  1  0
 24 26  1  0
 26 27  1  0
 27 28  2  0
 19 29  1  0
 13  4  1  0
 28 15  1  0
 12  7  1  0
 29 18  1  0
 27 21  1  0
M  END
>  <AAScore>  (1) 
12640.076827126122

>  <RootName>  (1) 
./4ZLY/04_DeltaGEst/trajectory_05/rank_00/lead_0419

$$$$
