confid_16
     RDKit          3D

 27 30  0  0  0  0  0  0  0  0999 V2000
   25.3300   26.2600   34.7600 N   0  0  0  0  0  0  0  0  0  0  0  0
   26.1200   25.9200   33.6900 C   0  0  0  0  0  0  0  0  0  0  0  0
   25.6300   25.1100   32.9400 O   0  0  0  0  0  0  0  0  0  0  0  0
   27.5200   26.3800   33.4600 C   0  0  0  0  0  0  0  0  0  0  0  0
   28.1600   26.6300   34.6100 N   0  0  0  0  0  0  0  0  0  0  0  0
   29.4800   26.8500   34.5700 N   0  0  0  0  0  0  0  0  0  0  0  0
   30.1900   26.7800   33.4400 C   0  0  0  0  0  0  0  0  0  0  0  0
   31.5600   27.0500   33.5000 C   0  0  0  0  0  0  0  0  0  0  0  0
   32.2700   27.2400   32.3100 C   0  0  0  0  0  0  0  0  0  0  0  0
   31.6100   27.2500   31.0800 C   0  0  0  0  0  0  0  0  0  0  0  0
   30.2700   26.8700   31.0600 C   0  0  0  0  0  0  0  0  0  0  0  0
   29.5100   26.6900   32.2300 C   0  0  0  0  0  0  0  0  0  0  0  0
   28.1400   26.4100   32.2000 C   0  0  0  0  0  0  0  0  0  0  0  0
   27.4300   26.1300   31.0500 N   0  0  0  0  0  0  0  0  0  0  0  0
   26.4835   27.1143   30.5186 C   0  0  0  0  0  0  0  0  0  0  0  0
   25.5374   26.4482   29.5172 C   0  0  0  0  0  0  0  0  0  0  0  0
   26.2847   25.7968   28.4191 N   0  0  0  0  0  0  0  0  0  0  0  0
   25.3708   24.9902   27.5847 C   0  0  0  0  0  0  0  0  0  0  0  0
   25.9493   24.8008   26.2162 C   0  0  0  0  0  0  0  0  0  0  0  0
   26.0979   25.7984   25.3207 N   0  0  0  0  0  0  0  0  0  0  0  0
   26.6615   25.2775   24.2420 N   0  0  0  0  0  0  0  0  0  0  0  0
   27.0050   26.0542   23.0542 C   0  0  0  0  0  0  0  0  0  0  0  0
   26.8931   23.9629   24.4400 C   0  0  0  0  0  0  0  0  0  0  0  0
   26.4448   23.6161   25.6991 C   0  0  0  0  0  0  0  0  0  0  0  0
   27.5421   23.0451   23.4523 C   0  0  0  0  0  0  0  0  0  0  0  0
   27.4825   25.0207   28.8539 C   0  0  0  0  0  0  0  0  0  0  0  0
   27.5945   24.8384   30.3752 C   0  0  0  0  0  0  0  0  0  0  0  0
  1  2  1  0
  2  3  2  0
  2  4  1  0
  4  5  2  0
  5  6  1  0
  6  7  2  0
  7  8  1  0
  8  9  2  0
  9 10  1  0
 10 11  2  0
 11 12  1  0
 12 13  2  0
 13 14  1  0
 14 15  1  0
 15 16  1  0
 16 17  1  0
 17 18  1  0
 18 19  1  0
 19 20  2  0
 20 21  1  0
 21 22  1  0
 21 23  1  0
 23 24  2  0
 23 25  1  0
 17 26  1  0
 26 27  1  0
 13  4  1  0
 27 14  1  0
 12  7  1  0
 24 19  1  0
M  END
>  <AAScore>  (1) 
165.94154201389568

>  <RootName>  (1) 
./4ZLY/04_DeltaGEst/trajectory_03/rank_01/lead_0353

$$$$
