confid_14
     RDKit          3D

 27 30  0  0  0  0  0  0  0  0999 V2000
   24.6900   26.1200   35.5300 N   0  0  0  0  0  0  0  0  0  0  0  0
   25.6600   25.6700   34.6600 C   0  0  0  0  0  0  0  0  0  0  0  0
   25.2400   25.0100   33.7200 O   0  0  0  0  0  0  0  0  0  0  0  0
   27.0300   26.2200   34.8800 C   0  0  0  0  0  0  0  0  0  0  0  0
   27.3500   26.7300   36.0700 N   0  0  0  0  0  0  0  0  0  0  0  0
   28.5700   27.1800   36.3300 N   0  0  0  0  0  0  0  0  0  0  0  0
   29.5300   27.1100   35.3900 C   0  0  0  0  0  0  0  0  0  0  0  0
   30.8300   27.5700   35.6500 C   0  0  0  0  0  0  0  0  0  0  0  0
   31.8500   27.5400   34.6900 C   0  0  0  0  0  0  0  0  0  0  0  0
   31.5100   27.1200   33.4000 C   0  0  0  0  0  0  0  0  0  0  0  0
   30.2200   26.6300   33.1100 C   0  0  0  0  0  0  0  0  0  0  0  0
   29.2400   26.6600   34.1000 C   0  0  0  0  0  0  0  0  0  0  0  0
   27.9300   26.2600   33.8100 C   0  0  0  0  0  0  0  0  0  0  0  0
   27.5200   25.7100   32.6100 N   0  0  0  0  0  0  0  0  0  0  0  0
   23.5448   25.3491   35.9327 C   0  0  0  0  0  0  0  0  0  0  0  0
   22.5964   25.8673   36.6431 N   0  0  0  0  0  0  0  0  0  0  0  0
   21.6517   24.8387   36.8995 C   0  0  0  0  0  0  0  0  0  0  0  0
   22.0174   23.6988   36.3316 C   0  0  0  0  0  0  0  0  0  0  0  0
   21.4627   22.3323   36.6523 C   0  0  2  0  0  0  0  0  0  0  0  0
   22.6259   21.3118   36.5396 C   0  0  0  0  0  0  0  0  0  0  0  0
   23.8609   21.8935   37.0897 N   0  0  0  0  0  0  0  0  0  0  0  0
   24.4098   22.9499   36.2136 C   0  0  0  0  0  0  0  0  0  0  0  0
   23.3202   23.8919   35.6346 C   0  0  2  0  0  0  0  0  0  0  0  0
   20.1913   21.9650   35.7992 C   0  0  0  0  0  0  0  0  0  0  0  0
   19.7366   20.5215   36.1140 C   0  0  0  0  0  0  0  0  0  0  0  0
   19.0258   22.9133   36.1648 C   0  0  0  0  0  0  0  0  0  0  0  0
   20.4526   22.0828   34.2785 C   0  0  0  0  0  0  0  0  0  0  0  0
  1  2  1  0
  2  3  2  0
  2  4  1  0
  4  5  2  0
  5  6  1  0
  6  7  2  0
  7  8  1  0
  8  9  2  0
  9 10  1  0
 10 11  2  0
 11 12  1  0
 12 13  2  0
 13 14  1  0
  1 15  1  0
 15 16  2  0
 16 17  1  0
 17 18  2  0
 18 19  1  0
 19 20  1  0
 20 21  1  0
 21 22  1  0
 23 22  1  1
 19 24  1  6
 24 25  1  0
 24 26  1  0
 24 27  1  0
 13  4  1  0
 23 15  1  0
 12  7  1  0
 23 18  1  0
M  END
>  <AAScore>  (1) 
784.040789493211

>  <RootName>  (1) 
./4ZLY/04_DeltaGEst/trajectory_02/rank_00/lead_0225

$$$$
