confid_18
     RDKit          3D

 30 33  0  0  0  0  0  0  0  0999 V2000
   24.5500   26.3900   36.2500 N   0  0  0  0  0  0  0  0  0  0  0  0
   25.6000   26.1300   35.4000 C   0  0  0  0  0  0  0  0  0  0  0  0
   25.4300   25.4300   34.4200 O   0  0  0  0  0  0  0  0  0  0  0  0
   26.9800   26.6300   35.7100 C   0  0  0  0  0  0  0  0  0  0  0  0
   27.3200   26.8200   36.9800 N   0  0  0  0  0  0  0  0  0  0  0  0
   28.4700   27.4000   37.3100 N   0  0  0  0  0  0  0  0  0  0  0  0
   29.4000   27.6300   36.3700 C   0  0  0  0  0  0  0  0  0  0  0  0
   30.6600   28.0500   36.8000 C   0  0  0  0  0  0  0  0  0  0  0  0
   31.5700   28.3600   35.7800 C   0  0  0  0  0  0  0  0  0  0  0  0
   31.3700   28.1000   34.4300 C   0  0  0  0  0  0  0  0  0  0  0  0
   30.1200   27.5900   34.0500 C   0  0  0  0  0  0  0  0  0  0  0  0
   29.1500   27.3400   35.0300 C   0  0  0  0  0  0  0  0  0  0  0  0
   27.8800   26.8900   34.6600 C   0  0  0  0  0  0  0  0  0  0  0  0
   27.4800   26.6100   33.3700 N   0  0  0  0  0  0  0  0  0  0  0  0
   30.9971   28.3257   38.2165 C   0  0  0  0  0  0  0  0  0  0  0  0
   32.1596   27.7649   38.7838 C   0  0  0  0  0  0  0  0  0  0  0  0
   32.4594   28.0465   40.1174 C   0  0  0  0  0  0  0  0  0  0  0  0
   33.6490   27.6101   40.8984 C   0  0  0  0  0  0  0  0  0  0  0  0
   33.4638   28.3230   42.2596 C   0  0  0  0  0  0  0  0  0  0  0  0
   32.1761   29.0159   42.1843 N   0  0  0  0  0  0  0  0  0  0  0  0
   31.4535   29.4312   43.3527 C   0  0  0  0  0  0  0  0  0  0  0  0
   32.0410   30.1279   44.2230 O   0  0  0  0  0  0  0  0  0  0  0  0
   30.0659   28.9195   43.6400 C   0  0  0  0  0  0  0  0  0  0  0  0
   30.1082   27.5104   44.2479 C   0  0  0  0  0  0  0  0  0  0  0  0
   30.7667   26.5466   43.3351 N   0  0  0  0  0  0  0  0  0  0  0  0
   29.8251   26.0421   42.3199 C   0  0  0  0  0  0  0  0  0  0  0  0
   31.3191   25.4147   44.0981 C   0  0  0  0  0  0  0  0  0  0  0  0
   31.6498   28.8437   40.8778 C   0  0  0  0  0  0  0  0  0  0  0  0
   30.5261   29.4682   40.3282 C   0  0  0  0  0  0  0  0  0  0  0  0
   30.1928   29.1928   38.9932 C   0  0  0  0  0  0  0  0  0  0  0  0
  1  2  1  0
  2  3  2  0
  2  4  1  0
  4  5  2  0
  5  6  1  0
  6  7  2  0
  7  8  1  0
  8  9  2  0
  9 10  1  0
 10 11  2  0
 11 12  1  0
 12 13  2  0
 13 14  1  0
  8 15  1  0
 15 16  2  0
 16 17  1  0
 17 18  1  0
 18 19  1  0
 19 20  1  0
 20 21  1  0
 21 22  2  0
 21 23  1  0
 23 24  1  0
 24 25  1  0
 25 26  1  0
 25 27  1  0
 20 28  1  0
 28 29  1  0
 29 30  2  0
 13  4  1  0
 30 15  1  0
 12  7  1  0
 28 17  2  0
M  END
>  <AAScore>  (1) 
282.27374912585407

>  <RootName>  (1) 
./4ZLY/04_DeltaGEst/trajectory_01/rank_01/lead_0426

$$$$
