confid_4
     RDKit          3D

 28 31  0  0  0  0  0  0  0  0999 V2000
   24.6900   26.1200   35.5300 N   0  0  0  0  0  0  0  0  0  0  0  0
   25.6600   25.6700   34.6600 C   0  0  0  0  0  0  0  0  0  0  0  0
   25.2400   25.0100   33.7200 O   0  0  0  0  0  0  0  0  0  0  0  0
   27.0300   26.2200   34.8800 C   0  0  0  0  0  0  0  0  0  0  0  0
   27.3500   26.7300   36.0700 N   0  0  0  0  0  0  0  0  0  0  0  0
   28.5700   27.1800   36.3300 N   0  0  0  0  0  0  0  0  0  0  0  0
   29.5300   27.1100   35.3900 C   0  0  0  0  0  0  0  0  0  0  0  0
   30.8300   27.5700   35.6500 C   0  0  0  0  0  0  0  0  0  0  0  0
   31.8500   27.5400   34.6900 C   0  0  0  0  0  0  0  0  0  0  0  0
   31.5100   27.1200   33.4000 C   0  0  0  0  0  0  0  0  0  0  0  0
   30.2200   26.6300   33.1100 C   0  0  0  0  0  0  0  0  0  0  0  0
   29.2400   26.6600   34.1000 C   0  0  0  0  0  0  0  0  0  0  0  0
   27.9300   26.2600   33.8100 C   0  0  0  0  0  0  0  0  0  0  0  0
   27.5200   25.7100   32.6100 N   0  0  0  0  0  0  0  0  0  0  0  0
   23.5068   25.3655   35.8565 C   0  0  0  0  0  0  0  0  0  0  0  0
   23.3395   24.0704   35.5045 N   0  0  0  0  0  0  0  0  0  0  0  0
   22.1473   23.7312   36.0325 C   0  0  0  0  0  0  0  0  0  0  0  0
   21.6134   24.8183   36.6873 C   0  0  0  0  0  0  0  0  0  0  0  0
   20.3651   24.8107   37.5280 C   0  0  0  0  0  0  0  0  0  0  0  0
   20.6198   24.4150   38.9364 N   0  0  0  0  0  0  0  0  0  0  0  0
   20.7079   22.9407   39.0776 C   0  0  0  0  0  0  0  0  0  0  0  0
   20.2010   22.4972   40.4488 C   0  0  0  0  0  0  0  0  0  0  0  0
   21.8089   25.0760   39.5362 C   0  0  0  0  0  0  0  0  0  0  0  0
   21.7208   26.6235   39.5136 C   0  0  0  0  0  0  0  0  0  0  0  0
   22.6597   27.2811   38.5762 N   0  0  0  0  0  0  0  0  0  0  0  0
   24.0842   27.0389   38.8535 C   0  0  0  0  0  0  0  0  0  0  0  0
   22.3008   27.2021   37.1456 C   0  0  0  0  0  0  0  0  0  0  0  0
   22.4771   25.8494   36.5931 N   0  0  0  0  0  0  0  0  0  0  0  0
  1  2  1  0
  2  3  2  0
  2  4  1  0
  4  5  2  0
  5  6  1  0
  6  7  2  0
  7  8  1  0
  8  9  2  0
  9 10  1  0
 10 11  2  0
 11 12  1  0
 12 13  2  0
 13 14  1  0
  1 15  1  0
 15 16  2  0
 16 17  1  0
 17 18  2  0
 18 19  1  0
 19 20  1  0
 20 21  1  0
 21 22  1  0
 20 23  1  0
 23 24  1  0
 24 25  1  0
 25 26  1  0
 25 27  1  0
 27 28  1  0
 13  4  1  0
 28 15  1  0
 12  7  1  0
 28 18  1  0
M  END
>  <AAScore>  (1) 
2564.4129031551693

>  <RootName>  (1) 
./4ZLY/04_DeltaGEst/trajectory_02/rank_00/lead_0096

$$$$
