confid_3
     RDKit          3D

 29 32  0  0  0  0  0  0  0  0999 V2000
   25.3300   26.2600   34.7600 N   0  0  0  0  0  0  0  0  0  0  0  0
   26.1200   25.9200   33.6900 C   0  0  0  0  0  0  0  0  0  0  0  0
   25.6300   25.1100   32.9400 O   0  0  0  0  0  0  0  0  0  0  0  0
   27.5200   26.3800   33.4600 C   0  0  0  0  0  0  0  0  0  0  0  0
   28.1600   26.6300   34.6100 N   0  0  0  0  0  0  0  0  0  0  0  0
   29.4800   26.8500   34.5700 N   0  0  0  0  0  0  0  0  0  0  0  0
   30.1900   26.7800   33.4400 C   0  0  0  0  0  0  0  0  0  0  0  0
   31.5600   27.0500   33.5000 C   0  0  0  0  0  0  0  0  0  0  0  0
   32.2700   27.2400   32.3100 C   0  0  0  0  0  0  0  0  0  0  0  0
   31.6100   27.2500   31.0800 C   0  0  0  0  0  0  0  0  0  0  0  0
   30.2700   26.8700   31.0600 C   0  0  0  0  0  0  0  0  0  0  0  0
   29.5100   26.6900   32.2300 C   0  0  0  0  0  0  0  0  0  0  0  0
   28.1400   26.4100   32.2000 C   0  0  0  0  0  0  0  0  0  0  0  0
   27.4300   26.1300   31.0500 N   0  0  0  0  0  0  0  0  0  0  0  0
   26.4412   27.0836   30.5377 C   0  0  0  0  0  0  0  0  0  0  0  0
   26.5568   27.1712   29.0156 C   0  0  0  0  0  0  0  0  0  0  0  0
   26.4754   25.8181   28.4301 N   0  0  0  0  0  0  0  0  0  0  0  0
   26.3569   25.8460   26.9554 C   0  0  0  0  0  0  0  0  0  0  0  0
   27.5471   26.4626   26.2667 C   0  0  0  0  0  0  0  0  0  0  0  0
   27.7018   27.7946   25.9289 C   0  0  0  0  0  0  0  0  0  0  0  0
   28.9380   27.8973   25.3230 C   0  0  0  0  0  0  0  0  0  0  0  0
   29.5393   26.6900   25.2983 N   0  0  0  0  0  0  0  0  0  0  0  0
   30.8146   26.3721   24.6590 C   0  0  0  0  0  0  0  0  0  0  0  0
   30.5929   26.0177   23.3409 F   0  0  0  0  0  0  0  0  0  0  0  0
   31.4258   25.3189   25.3165 F   0  0  0  0  0  0  0  0  0  0  0  0
   31.6565   27.4699   24.7003 F   0  0  0  0  0  0  0  0  0  0  0  0
   28.6895   25.8049   25.8556 C   0  0  0  0  0  0  0  0  0  0  0  0
   27.5935   24.9705   28.8901 C   0  0  0  0  0  0  0  0  0  0  0  0
   27.5440   24.8132   30.4121 C   0  0  0  0  0  0  0  0  0  0  0  0
  1  2  1  0
  2  3  2  0
  2  4  1  0
  4  5  2  0
  5  6  1  0
  6  7  2  0
  7  8  1  0
  8  9  2  0
  9 10  1  0
 10 11  2  0
 11 12  1  0
 12 13  2  0
 13 14  1  0
 14 15  1  0
 15 16  1  0
 16 17  1  0
 17 18  1  0
 18 19  1  0
 19 20  1  0
 20 21  2  0
 21 22  1  0
 22 23  1  0
 23 24  1  0
 23 25  1  0
 23 26  1  0
 22 27  1  0
 17 28  1  0
 28 29  1  0
 13  4  1  0
 29 14  1  0
 12  7  1  0
 27 19  2  0
M  END
>  <AAScore>  (1) 
1.9999345246889224

>  <RootName>  (1) 
./4ZLY/04_DeltaGEst/trajectory_03/rank_01/lead_0378

$$$$
