confid_19
     RDKit          3D

 26 29  0  0  0  0  0  0  0  0999 V2000
   24.5500   26.3900   36.2500 N   0  0  0  0  0  0  0  0  0  0  0  0
   25.6000   26.1300   35.4000 C   0  0  0  0  0  0  0  0  0  0  0  0
   25.4300   25.4300   34.4200 O   0  0  0  0  0  0  0  0  0  0  0  0
   26.9800   26.6300   35.7100 C   0  0  0  0  0  0  0  0  0  0  0  0
   27.3200   26.8200   36.9800 N   0  0  0  0  0  0  0  0  0  0  0  0
   28.4700   27.4000   37.3100 N   0  0  0  0  0  0  0  0  0  0  0  0
   29.4000   27.6300   36.3700 C   0  0  0  0  0  0  0  0  0  0  0  0
   30.6600   28.0500   36.8000 C   0  0  0  0  0  0  0  0  0  0  0  0
   31.5700   28.3600   35.7800 C   0  0  0  0  0  0  0  0  0  0  0  0
   31.3700   28.1000   34.4300 C   0  0  0  0  0  0  0  0  0  0  0  0
   30.1200   27.5900   34.0500 C   0  0  0  0  0  0  0  0  0  0  0  0
   29.1500   27.3400   35.0300 C   0  0  0  0  0  0  0  0  0  0  0  0
   27.8800   26.8900   34.6600 C   0  0  0  0  0  0  0  0  0  0  0  0
   27.4800   26.6100   33.3700 N   0  0  0  0  0  0  0  0  0  0  0  0
   31.0184   28.3062   38.2200 C   0  0  0  0  0  0  0  0  0  0  0  0
   32.3085   28.1656   38.7580 C   0  0  0  0  0  0  0  0  0  0  0  0
   32.3345   28.5214   40.1031 C   0  0  0  0  0  0  0  0  0  0  0  0
   33.3976   28.5822   41.1295 C   0  0  0  0  0  0  0  0  0  0  0  0
   32.6684   29.0840   42.3060 N   0  0  0  0  0  0  0  0  0  0  0  0
   33.2982   29.3418   43.5712 C   0  0  0  0  0  0  0  0  0  0  0  0
   34.5391   29.1484   43.6952 O   0  0  0  0  0  0  0  0  0  0  0  0
   32.4946   29.8771   44.7302 C   0  0  0  0  0  0  0  0  0  0  0  0
   33.2696   29.8761   46.0473 C   0  0  0  0  0  0  0  0  0  0  0  0
   31.2436   29.3196   42.0237 C   0  0  0  0  0  0  0  0  0  0  0  0
   31.1540   28.9276   40.6064 C   0  0  0  0  0  0  0  0  0  0  0  0
   29.9622   28.8900   39.4325 S   0  0  0  0  0  0  0  0  0  0  0  0
  1  2  1  0
  2  3  2  0
  2  4  1  0
  4  5  2  0
  5  6  1  0
  6  7  2  0
  7  8  1  0
  8  9  2  0
  9 10  1  0
 10 11  2  0
 11 12  1  0
 12 13  2  0
 13 14  1  0
  8 15  1  0
 15 16  2  0
 16 17  1  0
 17 18  1  0
 18 19  1  0
 19 20  1  0
 20 21  2  0
 20 22  1  0
 22 23  1  0
 19 24  1  0
 24 25  1  0
 25 26  1  0
 13  4  1  0
 26 15  1  0
 12  7  1  0
 25 17  2  0
M  END
>  <AAScore>  (1) 
2780.906333812228

>  <RootName>  (1) 
./4ZLY/04_DeltaGEst/trajectory_01/rank_01/lead_0342

$$$$
