confid_15
     RDKit          3D

 28 31  0  0  0  0  0  0  0  0999 V2000
   24.2000   26.2400   35.6900 N   0  0  0  0  0  0  0  0  0  0  0  0
   24.8500   26.2800   34.4800 C   0  0  0  0  0  0  0  0  0  0  0  0
   24.3100   25.7400   33.5400 O   0  0  0  0  0  0  0  0  0  0  0  0
   26.1800   26.9700   34.4700 C   0  0  0  0  0  0  0  0  0  0  0  0
   26.6500   27.6000   35.5500 N   0  0  0  0  0  0  0  0  0  0  0  0
   27.7900   28.2700   35.6200 N   0  0  0  0  0  0  0  0  0  0  0  0
   28.5400   28.3000   34.5100 C   0  0  0  0  0  0  0  0  0  0  0  0
   29.7700   28.9400   34.5600 C   0  0  0  0  0  0  0  0  0  0  0  0
   30.7000   28.8900   33.5000 C   0  0  0  0  0  0  0  0  0  0  0  0
   30.3700   28.1400   32.3700 C   0  0  0  0  0  0  0  0  0  0  0  0
   29.1200   27.5200   32.2800 C   0  0  0  0  0  0  0  0  0  0  0  0
   28.2100   27.6100   33.3300 C   0  0  0  0  0  0  0  0  0  0  0  0
   26.9700   26.9700   33.3100 C   0  0  0  0  0  0  0  0  0  0  0  0
   26.5300   26.2400   32.2200 N   0  0  0  0  0  0  0  0  0  0  0  0
   30.1437   29.6694   35.7413 N   0  0  0  0  0  0  0  0  0  0  0  0
   29.5384   30.9966   35.9448 C   0  0  0  0  0  0  0  0  0  0  0  0
   30.0533   31.7527   37.1788 C   0  0  0  0  0  0  0  0  0  0  0  0
   29.6727   31.0778   38.5053 C   0  0  0  0  0  0  0  0  0  0  0  0
   30.6647   30.0457   38.8751 N   0  0  0  0  0  0  0  0  0  0  0  0
   30.6784   29.8008   40.3460 C   0  0  1  0  0  0  0  0  0  0  0  0
   29.5690   28.9162   40.8813 C   0  0  0  0  0  0  0  0  0  0  0  0
   30.2895   27.9769   41.8705 C   0  0  0  0  0  0  0  0  0  0  0  0
   29.6703   28.0924   43.2721 C   0  0  0  0  0  0  0  0  0  0  0  0
   30.2102   26.5135   41.3989 C   0  0  0  0  0  0  0  0  0  0  0  0
   31.6509   28.3512   41.9561 O   0  0  0  0  0  0  0  0  0  0  0  0
   31.9567   29.1312   40.8262 C   0  0  0  0  0  0  0  0  0  0  0  0
   30.5204   28.8348   38.0326 C   0  0  0  0  0  0  0  0  0  0  0  0
   31.1321   29.0731   36.6504 C   0  0  0  0  0  0  0  0  0  0  0  0
  1  2  1  0
  2  3  2  0
  2  4  1  0
  4  5  2  0
  5  6  1  0
  6  7  2  0
  7  8  1  0
  8  9  2  0
  9 10  1  0
 10 11  2  0
 11 12  1  0
 12 13  2  0
 13 14  1  0
  8 15  1  0
 15 16  1  0
 16 17  1  0
 17 18  1  0
 18 19  1  0
 20 19  1  6
 20 21  1  0
 21 22  1  0
 22 23  1  0
 22 24  1  0
 22 25  1  0
 25 26  1  0
 19 27  1  0
 27 28  1  0
 13  4  1  0
 28 15  1  0
 12  7  1  0
 26 20  1  0
M  END
>  <AAScore>  (1) 
-8.371108288563804

>  <RootName>  (1) 
./4ZLY/04_DeltaGEst/trajectory_04/rank_01/lead_0139

$$$$
