confid_1
     RDKit          3D

 28 31  0  0  0  0  0  0  0  0999 V2000
   24.5500   26.3900   36.2500 N   0  0  0  0  0  0  0  0  0  0  0  0
   25.6000   26.1300   35.4000 C   0  0  0  0  0  0  0  0  0  0  0  0
   25.4300   25.4300   34.4200 O   0  0  0  0  0  0  0  0  0  0  0  0
   26.9800   26.6300   35.7100 C   0  0  0  0  0  0  0  0  0  0  0  0
   27.3200   26.8200   36.9800 N   0  0  0  0  0  0  0  0  0  0  0  0
   28.4700   27.4000   37.3100 N   0  0  0  0  0  0  0  0  0  0  0  0
   29.4000   27.6300   36.3700 C   0  0  0  0  0  0  0  0  0  0  0  0
   30.6600   28.0500   36.8000 C   0  0  0  0  0  0  0  0  0  0  0  0
   31.5700   28.3600   35.7800 C   0  0  0  0  0  0  0  0  0  0  0  0
   31.3700   28.1000   34.4300 C   0  0  0  0  0  0  0  0  0  0  0  0
   30.1200   27.5900   34.0500 C   0  0  0  0  0  0  0  0  0  0  0  0
   29.1500   27.3400   35.0300 C   0  0  0  0  0  0  0  0  0  0  0  0
   27.8800   26.8900   34.6600 C   0  0  0  0  0  0  0  0  0  0  0  0
   27.4800   26.6100   33.3700 N   0  0  0  0  0  0  0  0  0  0  0  0
   23.1633   26.2149   35.9114 C   0  0  0  0  0  0  0  0  0  0  0  0
   22.2800   25.9071   36.8958 N   0  0  0  0  0  0  0  0  0  0  0  0
   20.9525   25.7477   36.6599 C   0  0  0  0  0  0  0  0  0  0  0  0
   20.4319   25.8878   35.3574 C   0  0  0  0  0  0  0  0  0  0  0  0
   18.9253   25.7709   35.0747 C   0  0  0  0  0  0  0  0  0  0  0  0
   18.6956   25.3650   33.5941 C   0  0  0  0  0  0  0  0  0  0  0  0
   19.4273   26.2486   32.6815 N   0  0  0  0  0  0  0  0  0  0  0  0
   20.7989   26.5473   32.9751 C   0  0  0  0  0  0  0  0  0  0  0  0
   21.5403   27.0583   32.0910 O   0  0  0  0  0  0  0  0  0  0  0  0
   21.3230   26.2758   34.3299 C   0  0  0  0  0  0  0  0  0  0  0  0
   22.6888   26.4337   34.6102 C   0  0  0  0  0  0  0  0  0  0  0  0
   18.7934   26.7931   31.4790 C   0  0  0  0  0  0  0  0  0  0  0  0
   18.2537   24.6939   35.9602 C   0  0  0  0  0  0  0  0  0  0  0  0
   18.2590   27.1336   35.3489 C   0  0  0  0  0  0  0  0  0  0  0  0
  1  2  1  0
  2  3  2  0
  2  4  1  0
  4  5  2  0
  5  6  1  0
  6  7  2  0
  7  8  1  0
  8  9  2  0
  9 10  1  0
 10 11  2  0
 11 12  1  0
 12 13  2  0
 13 14  1  0
  1 15  1  0
 15 16  2  0
 16 17  1  0
 17 18  2  0
 18 19  1  0
 19 20  1  0
 20 21  1  0
 21 22  1  0
 22 23  2  0
 22 24  1  0
 24 25  2  0
 21 26  1  0
 19 27  1  0
 19 28  1  0
 13  4  1  0
 25 15  1  0
 12  7  1  0
 24 18  1  0
M  END
>  <AAScore>  (1) 
2335.188049358011

>  <RootName>  (1) 
./4ZLY/04_DeltaGEst/trajectory_01/rank_00/lead_0438

$$$$
