confid_3
     RDKit          3D

 29 33  0  0  0  0  0  0  0  0999 V2000
   25.3300   26.2600   34.7600 N   0  0  0  0  0  0  0  0  0  0  0  0
   26.1200   25.9200   33.6900 C   0  0  0  0  0  0  0  0  0  0  0  0
   25.6300   25.1100   32.9400 O   0  0  0  0  0  0  0  0  0  0  0  0
   27.5200   26.3800   33.4600 C   0  0  0  0  0  0  0  0  0  0  0  0
   28.1600   26.6300   34.6100 N   0  0  0  0  0  0  0  0  0  0  0  0
   29.4800   26.8500   34.5700 N   0  0  0  0  0  0  0  0  0  0  0  0
   30.1900   26.7800   33.4400 C   0  0  0  0  0  0  0  0  0  0  0  0
   31.5600   27.0500   33.5000 C   0  0  0  0  0  0  0  0  0  0  0  0
   32.2700   27.2400   32.3100 C   0  0  0  0  0  0  0  0  0  0  0  0
   31.6100   27.2500   31.0800 C   0  0  0  0  0  0  0  0  0  0  0  0
   30.2700   26.8700   31.0600 C   0  0  0  0  0  0  0  0  0  0  0  0
   29.5100   26.6900   32.2300 C   0  0  0  0  0  0  0  0  0  0  0  0
   28.1400   26.4100   32.2000 C   0  0  0  0  0  0  0  0  0  0  0  0
   27.4300   26.1300   31.0500 N   0  0  0  0  0  0  0  0  0  0  0  0
   26.5094   27.1231   30.4912 C   0  0  0  0  0  0  0  0  0  0  0  0
   26.6496   27.1379   28.9660 C   0  0  0  0  0  0  0  0  0  0  0  0
   26.4909   25.7913   28.3607 N   0  0  0  0  0  0  0  0  0  0  0  0
   27.2300   25.6020   27.0927 C   0  0  0  0  0  0  0  0  0  0  0  0
   28.7300   25.5671   27.2624 C   0  0  0  0  0  0  0  0  0  0  0  0
   29.5001   26.6782   27.2923 N   0  0  0  0  0  0  0  0  0  0  0  0
   30.7628   26.2178   27.4274 C   0  0  0  0  0  0  0  0  0  0  0  0
   30.8132   24.8750   27.4865 N   0  0  0  0  0  0  0  0  0  0  0  0
   32.0052   24.0291   27.5187 C   0  0  0  0  0  0  0  0  0  0  0  0
   31.6276   22.5760   27.8495 C   0  0  0  0  0  0  0  0  0  0  0  0
   30.3984   22.1304   27.0389 C   0  0  0  0  0  0  0  0  0  0  0  0
   29.1720   22.9975   27.3642 C   0  0  0  0  0  0  0  0  0  0  0  0
   29.5468   24.4520   27.3490 C   0  0  0  0  0  0  0  0  0  0  0  0
   26.5475   24.6382   29.2875 C   0  0  0  0  0  0  0  0  0  0  0  0
   27.5878   24.8244   30.4000 C   0  0  0  0  0  0  0  0  0  0  0  0
  1  2  1  0
  2  3  2  0
  2  4  1  0
  4  5  2  0
  5  6  1  0
  6  7  2  0
  7  8  1  0
  8  9  2  0
  9 10  1  0
 10 11  2  0
 11 12  1  0
 12 13  2  0
 13 14  1  0
 14 15  1  0
 15 16  1  0
 16 17  1  0
 17 18  1  0
 18 19  1  0
 19 20  1  0
 20 21  2  0
 21 22  1  0
 22 23  1  0
 23 24  1  0
 24 25  1  0
 25 26  1  0
 26 27  1  0
 17 28  1  0
 28 29  1  0
 13  4  1  0
 29 14  1  0
 12  7  1  0
 27 19  2  0
 27 22  1  0
M  END
>  <AAScore>  (1) 
-3.7689005211792312

>  <RootName>  (1) 
./4ZLY/04_DeltaGEst/trajectory_03/rank_01/lead_0349

$$$$
