confid_14
     RDKit          3D

 28 32  0  0  0  0  0  0  0  0999 V2000
   24.5500   26.3900   36.2500 N   0  0  0  0  0  0  0  0  0  0  0  0
   25.6000   26.1300   35.4000 C   0  0  0  0  0  0  0  0  0  0  0  0
   25.4300   25.4300   34.4200 O   0  0  0  0  0  0  0  0  0  0  0  0
   26.9800   26.6300   35.7100 C   0  0  0  0  0  0  0  0  0  0  0  0
   27.3200   26.8200   36.9800 N   0  0  0  0  0  0  0  0  0  0  0  0
   28.4700   27.4000   37.3100 N   0  0  0  0  0  0  0  0  0  0  0  0
   29.4000   27.6300   36.3700 C   0  0  0  0  0  0  0  0  0  0  0  0
   30.6600   28.0500   36.8000 C   0  0  0  0  0  0  0  0  0  0  0  0
   31.5700   28.3600   35.7800 C   0  0  0  0  0  0  0  0  0  0  0  0
   31.3700   28.1000   34.4300 C   0  0  0  0  0  0  0  0  0  0  0  0
   30.1200   27.5900   34.0500 C   0  0  0  0  0  0  0  0  0  0  0  0
   29.1500   27.3400   35.0300 C   0  0  0  0  0  0  0  0  0  0  0  0
   27.8800   26.8900   34.6600 C   0  0  0  0  0  0  0  0  0  0  0  0
   27.4800   26.6100   33.3700 N   0  0  0  0  0  0  0  0  0  0  0  0
   30.9663   28.3053   38.1816 N   0  0  0  0  0  0  0  0  0  0  0  0
   30.2727   29.3928   38.8982 C   0  0  0  0  0  0  0  0  0  0  0  0
   29.8774   28.9461   40.3170 C   0  0  0  0  0  0  0  0  0  0  0  0
   31.0185   28.2141   40.9541 C   0  0  0  0  0  0  0  0  0  0  0  0
   32.0263   27.6049   40.2496 C   0  0  0  0  0  0  0  0  0  0  0  0
   32.8175   26.9014   41.0801 N   0  0  0  0  0  0  0  0  0  0  0  0
   32.3242   27.0446   42.3039 N   0  0  0  0  0  0  0  0  0  0  0  0
   32.8680   26.3386   43.4622 C   0  0  0  0  0  0  0  0  0  0  0  0
   32.1529   24.9941   43.6355 C   0  0  0  0  0  0  0  0  0  0  0  0
   31.1332   24.9109   44.7619 C   0  0  0  0  0  0  0  0  0  0  0  0
   32.4993   24.2650   44.9247 C   0  0  0  0  0  0  0  0  0  0  0  0
   31.2187   27.8292   42.2650 C   0  0  0  0  0  0  0  0  0  0  0  0
   30.2939   28.0924   43.4152 C   0  0  0  0  0  0  0  0  0  0  0  0
   32.1815   27.7141   38.7666 C   0  0  0  0  0  0  0  0  0  0  0  0
  1  2  1  0
  2  3  2  0
  2  4  1  0
  4  5  2  0
  5  6  1  0
  6  7  2  0
  7  8  1  0
  8  9  2  0
  9 10  1  0
 10 11  2  0
 11 12  1  0
 12 13  2  0
 13 14  1  0
  8 15  1  0
 15 16  1  0
 16 17  1  0
 17 18  1  0
 18 19  1  0
 19 20  2  0
 20 21  1  0
 21 22  1  0
 22 23  1  0
 23 24  1  0
 24 25  1  0
 21 26  1  0
 26 27  1  0
 19 28  1  0
 13  4  1  0
 28 15  1  0
 12  7  1  0
 26 18  2  0
 25 23  1  0
M  END
>  <AAScore>  (1) 
3.756444324981093

>  <RootName>  (1) 
./4ZLY/04_DeltaGEst/trajectory_01/rank_01/lead_0316

$$$$
