confid_11
     RDKit          3D

 30 33  0  0  0  0  0  0  0  0999 V2000
   24.5500   26.3900   36.2500 N   0  0  0  0  0  0  0  0  0  0  0  0
   25.6000   26.1300   35.4000 C   0  0  0  0  0  0  0  0  0  0  0  0
   25.4300   25.4300   34.4200 O   0  0  0  0  0  0  0  0  0  0  0  0
   26.9800   26.6300   35.7100 C   0  0  0  0  0  0  0  0  0  0  0  0
   27.3200   26.8200   36.9800 N   0  0  0  0  0  0  0  0  0  0  0  0
   28.4700   27.4000   37.3100 N   0  0  0  0  0  0  0  0  0  0  0  0
   29.4000   27.6300   36.3700 C   0  0  0  0  0  0  0  0  0  0  0  0
   30.6600   28.0500   36.8000 C   0  0  0  0  0  0  0  0  0  0  0  0
   31.5700   28.3600   35.7800 C   0  0  0  0  0  0  0  0  0  0  0  0
   31.3700   28.1000   34.4300 C   0  0  0  0  0  0  0  0  0  0  0  0
   30.1200   27.5900   34.0500 C   0  0  0  0  0  0  0  0  0  0  0  0
   29.1500   27.3400   35.0300 C   0  0  0  0  0  0  0  0  0  0  0  0
   27.8800   26.8900   34.6600 C   0  0  0  0  0  0  0  0  0  0  0  0
   27.4800   26.6100   33.3700 N   0  0  0  0  0  0  0  0  0  0  0  0
   23.1516   26.0897   35.9196 C   0  0  0  0  0  0  0  0  0  0  0  0
   22.4147   25.5866   37.1679 C   0  0  0  0  0  0  0  0  0  0  0  0
   20.9835   25.1676   36.8001 C   0  0  0  0  0  0  0  0  0  0  0  0
   20.3692   26.1028   35.8481 N   0  0  0  0  0  0  0  0  0  0  0  0
   19.0667   25.7933   35.3137 C   0  0  0  0  0  0  0  0  0  0  0  0
   18.2593   25.1109   36.0027 O   0  0  0  0  0  0  0  0  0  0  0  0
   18.6536   26.2517   33.9672 C   0  0  0  0  0  0  0  0  0  0  0  0
   19.5332   26.1642   32.8661 C   0  0  0  0  0  0  0  0  0  0  0  0
   20.8026   25.5918   33.0527 O   0  0  0  0  0  0  0  0  0  0  0  0
   21.8035   25.4847   32.0446 C   0  0  0  0  0  0  0  0  0  0  0  0
   19.1098   26.6355   31.6063 C   0  0  0  0  0  0  0  0  0  0  0  0
   17.8270   27.1687   31.4462 C   0  0  0  0  0  0  0  0  0  0  0  0
   16.9498   27.2211   32.5281 C   0  0  0  0  0  0  0  0  0  0  0  0
   17.3563   26.7577   33.7809 C   0  0  0  0  0  0  0  0  0  0  0  0
   20.9636   27.4355   35.6546 C   0  0  0  0  0  0  0  0  0  0  0  0
   22.4687   27.3455   35.3314 C   0  0  0  0  0  0  0  0  0  0  0  0
  1  2  1  0
  2  3  2  0
  2  4  1  0
  4  5  2  0
  5  6  1  0
  6  7  2  0
  7  8  1  0
  8  9  2  0
  9 10  1  0
 10 11  2  0
 11 12  1  0
 12 13  2  0
 13 14  1  0
  1 15  1  0
 15 16  1  0
 16 17  1  0
 17 18  1  0
 18 19  1  0
 19 20  2  0
 19 21  1  0
 21 22  2  0
 22 23  1  0
 23 24  1  0
 22 25  1  0
 25 26  2  0
 26 27  1  0
 27 28  2  0
 18 29  1  0
 29 30  1  0
 13  4  1  0
 30 15  1  0
 12  7  1  0
 28 21  1  0
M  END
>  <AAScore>  (1) 
2279.107341990849

>  <RootName>  (1) 
./4ZLY/04_DeltaGEst/trajectory_01/rank_00/lead_0432

$$$$
