confid_16
     RDKit          3D

 29 33  0  0  0  0  0  0  0  0999 V2000
   24.2000   26.2400   35.6900 N   0  0  0  0  0  0  0  0  0  0  0  0
   24.8500   26.2800   34.4800 C   0  0  0  0  0  0  0  0  0  0  0  0
   24.3100   25.7400   33.5400 O   0  0  0  0  0  0  0  0  0  0  0  0
   26.1800   26.9700   34.4700 C   0  0  0  0  0  0  0  0  0  0  0  0
   26.6500   27.6000   35.5500 N   0  0  0  0  0  0  0  0  0  0  0  0
   27.7900   28.2700   35.6200 N   0  0  0  0  0  0  0  0  0  0  0  0
   28.5400   28.3000   34.5100 C   0  0  0  0  0  0  0  0  0  0  0  0
   29.7700   28.9400   34.5600 C   0  0  0  0  0  0  0  0  0  0  0  0
   30.7000   28.8900   33.5000 C   0  0  0  0  0  0  0  0  0  0  0  0
   30.3700   28.1400   32.3700 C   0  0  0  0  0  0  0  0  0  0  0  0
   29.1200   27.5200   32.2800 C   0  0  0  0  0  0  0  0  0  0  0  0
   28.2100   27.6100   33.3300 C   0  0  0  0  0  0  0  0  0  0  0  0
   26.9700   26.9700   33.3100 C   0  0  0  0  0  0  0  0  0  0  0  0
   26.5300   26.2400   32.2200 N   0  0  0  0  0  0  0  0  0  0  0  0
   30.1358   29.6830   35.7357 N   0  0  0  0  0  0  0  0  0  0  0  0
   30.9595   28.9951   36.7416 C   0  0  0  0  0  0  0  0  0  0  0  0
   31.6078   29.9909   37.7018 C   0  0  0  0  0  0  0  0  0  0  0  0
   30.5784   30.8936   38.2163 N   0  0  0  0  0  0  0  0  0  0  0  0
   30.1083   30.7300   39.5952 C   0  0  0  0  0  0  0  0  0  0  0  0
   29.8084   31.6222   37.2378 C   0  0  0  0  0  0  0  0  0  0  0  0
   29.3452   32.9488   37.4524 C   0  0  0  0  0  0  0  0  0  0  0  0
   29.6990   33.7643   38.6770 C   0  0  0  0  0  0  0  0  0  0  0  0
   31.2092   34.0410   38.7258 C   0  0  0  0  0  0  0  0  0  0  0  0
   31.6138   35.3333   39.4189 C   0  0  0  0  0  0  0  0  0  0  0  0
   31.6781   35.2304   37.9023 C   0  0  0  0  0  0  0  0  0  0  0  0
   28.6091   33.5715   36.4308 C   0  0  0  0  0  0  0  0  0  0  0  0
   28.3680   32.9301   35.2612 N   0  0  0  0  0  0  0  0  0  0  0  0
   28.8284   31.6784   35.0203 C   0  0  0  0  0  0  0  0  0  0  0  0
   29.5721   30.9944   35.9965 C   0  0  0  0  0  0  0  0  0  0  0  0
  1  2  1  0
  2  3  2  0
  2  4  1  0
  4  5  2  0
  5  6  1  0
  6  7  2  0
  7  8  1  0
  8  9  2  0
  9 10  1  0
 10 11  2  0
 11 12  1  0
 12 13  2  0
 13 14  1  0
  8 15  1  0
 15 16  1  0
 16 17  1  0
 17 18  1  0
 18 19  1  0
 18 20  1  0
 20 21  2  0
 21 22  1  0
 22 23  1  0
 23 24  1  0
 24 25  1  0
 21 26  1  0
 26 27  2  0
 27 28  1  0
 28 29  2  0
 13  4  1  0
 29 15  1  0
 12  7  1  0
 29 20  1  0
 25 23  1  0
M  END
>  <AAScore>  (1) 
-0.2613313317449094

>  <RootName>  (1) 
./4ZLY/04_DeltaGEst/trajectory_04/rank_01/lead_0101

$$$$
