confid_9
     RDKit          3D

 26 28  0  0  0  0  0  0  0  0999 V2000
   24.5700   26.8800   35.5900 N   0  0  0  0  0  0  0  0  0  0  0  0
   25.5000   26.4000   34.6900 C   0  0  0  0  0  0  0  0  0  0  0  0
   25.1700   25.5200   33.9100 O   0  0  0  0  0  0  0  0  0  0  0  0
   26.8400   27.0200   34.7400 C   0  0  0  0  0  0  0  0  0  0  0  0
   27.3800   27.2800   35.9400 N   0  0  0  0  0  0  0  0  0  0  0  0
   28.6200   27.7400   36.0300 N   0  0  0  0  0  0  0  0  0  0  0  0
   29.3800   28.0000   34.9600 C   0  0  0  0  0  0  0  0  0  0  0  0
   30.6700   28.5000   35.1300 C   0  0  0  0  0  0  0  0  0  0  0  0
   31.5400   28.6100   34.0300 C   0  0  0  0  0  0  0  0  0  0  0  0
   31.0900   28.2200   32.7700 C   0  0  0  0  0  0  0  0  0  0  0  0
   29.8000   27.7000   32.6000 C   0  0  0  0  0  0  0  0  0  0  0  0
   28.9600   27.5500   33.7100 C   0  0  0  0  0  0  0  0  0  0  0  0
   27.6600   27.0300   33.5900 C   0  0  0  0  0  0  0  0  0  0  0  0
   27.1600   26.7400   32.3400 N   0  0  0  0  0  0  0  0  0  0  0  0
   33.1552   29.2775   34.2451 S   0  0  0  0  0  6  0  0  0  0  0  0
   34.0269   28.9084   33.0770 O   0  0  0  0  0  0  0  0  0  0  0  0
   33.7641   28.7089   35.4959 O   0  0  0  0  0  0  0  0  0  0  0  0
   33.0633   31.0547   34.3854 C   0  0  0  0  0  0  0  0  0  0  0  0
   32.4465   31.6723   33.1281 C   0  0  0  0  0  0  0  0  0  0  0  0
   32.3882   33.1754   33.2491 C   0  0  0  0  0  0  0  0  0  0  0  0
   31.2308   33.7757   33.7761 C   0  0  0  0  0  0  0  0  0  0  0  0
   31.1573   35.1626   33.9271 C   0  0  0  0  0  0  0  0  0  0  0  0
   32.2403   35.9643   33.5641 C   0  0  0  0  0  0  0  0  0  0  0  0
   33.4020   35.3811   33.0538 C   0  0  0  0  0  0  0  0  0  0  0  0
   33.4875   33.9918   32.8982 C   0  0  0  0  0  0  0  0  0  0  0  0
   34.9867   33.3144   32.2701 Cl  0  0  0  0  0  0  0  0  0  0  0  0
  1  2  1  0
  2  3  2  0
  2  4  1  0
  4  5  2  0
  5  6  1  0
  6  7  2  0
  7  8  1  0
  8  9  2  0
  9 10  1  0
 10 11  2  0
 11 12  1  0
 12 13  2  0
 13 14  1  0
  9 15  1  0
 15 16  2  0
 15 17  2  0
 15 18  1  0
 18 19  1  0
 19 20  1  0
 20 21  2  0
 21 22  1  0
 22 23  2  0
 23 24  1  0
 24 25  2  0
 25 26  1  0
 13  4  1  0
 25 20  1  0
 12  7  1  0
M  END
>  <AAScore>  (1) 
-5.300267268176449

>  <RootName>  (1) 
./4ZLY/04_DeltaGEst/trajectory_05/rank_01/lead_0213

$$$$
