confid_12
     RDKit          3D

 27 30  0  0  0  0  0  0  0  0999 V2000
   24.6900   26.1200   35.5300 N   0  0  0  0  0  0  0  0  0  0  0  0
   25.6600   25.6700   34.6600 C   0  0  0  0  0  0  0  0  0  0  0  0
   25.2400   25.0100   33.7200 O   0  0  0  0  0  0  0  0  0  0  0  0
   27.0300   26.2200   34.8800 C   0  0  0  0  0  0  0  0  0  0  0  0
   27.3500   26.7300   36.0700 N   0  0  0  0  0  0  0  0  0  0  0  0
   28.5700   27.1800   36.3300 N   0  0  0  0  0  0  0  0  0  0  0  0
   29.5300   27.1100   35.3900 C   0  0  0  0  0  0  0  0  0  0  0  0
   30.8300   27.5700   35.6500 C   0  0  0  0  0  0  0  0  0  0  0  0
   31.8500   27.5400   34.6900 C   0  0  0  0  0  0  0  0  0  0  0  0
   31.5100   27.1200   33.4000 C   0  0  0  0  0  0  0  0  0  0  0  0
   30.2200   26.6300   33.1100 C   0  0  0  0  0  0  0  0  0  0  0  0
   29.2400   26.6600   34.1000 C   0  0  0  0  0  0  0  0  0  0  0  0
   27.9300   26.2600   33.8100 C   0  0  0  0  0  0  0  0  0  0  0  0
   27.5200   25.7100   32.6100 N   0  0  0  0  0  0  0  0  0  0  0  0
   31.1423   28.0749   36.9576 N   0  0  0  0  0  0  0  0  0  0  0  0
   30.6674   29.4059   37.3531 C   0  0  0  0  0  0  0  0  0  0  0  0
   30.4990   29.4796   38.8720 C   0  0  0  0  0  0  0  0  0  0  0  0
   31.6897   28.9511   39.5481 N   0  0  0  0  0  0  0  0  0  0  0  0
   32.0156   29.4152   40.8661 C   0  0  0  0  0  0  0  0  0  0  0  0
   32.5844   30.6853   41.0198 C   0  0  0  0  0  0  0  0  0  0  0  0
   32.9205   31.1415   42.2943 C   0  0  0  0  0  0  0  0  0  0  0  0
   32.6958   30.3567   43.3797 N   0  0  0  0  0  0  0  0  0  0  0  0
   32.1364   29.1232   43.2670 C   0  0  0  0  0  0  0  0  0  0  0  0
   31.7640   28.6244   42.0087 C   0  0  0  0  0  0  0  0  0  0  0  0
   31.1444   27.2581   41.9028 C   0  0  0  0  0  0  0  0  0  0  0  0
   32.4110   27.8412   38.9863 C   0  0  0  0  0  0  0  0  0  0  0  0
   32.1372   27.4110   37.7548 C   0  0  0  0  0  0  0  0  0  0  0  0
  1  2  1  0
  2  3  2  0
  2  4  1  0
  4  5  2  0
  5  6  1  0
  6  7  2  0
  7  8  1  0
  8  9  2  0
  9 10  1  0
 10 11  2  0
 11 12  1  0
 12 13  2  0
 13 14  1  0
  8 15  1  0
 15 16  1  0
 16 17  1  0
 17 18  1  0
 18 19  1  0
 19 20  2  0
 20 21  1  0
 21 22  2  0
 22 23  1  0
 23 24  2  0
 24 25  1  0
 18 26  1  0
 26 27  2  0
 13  4  1  0
 27 15  1  0
 12  7  1  0
 24 19  1  0
M  END
>  <AAScore>  (1) 
1261.6886448499397

>  <RootName>  (1) 
./4ZLY/04_DeltaGEst/trajectory_02/rank_01/lead_0284

$$$$
