confid_15
     RDKit          3D

 26 28  0  0  0  0  0  0  0  0999 V2000
   24.4800   26.1000   36.1300 N   0  0  0  0  0  0  0  0  0  0  0  0
   25.2500   26.2500   34.9900 C   0  0  0  0  0  0  0  0  0  0  0  0
   24.7400   25.7600   33.9900 O   0  0  0  0  0  0  0  0  0  0  0  0
   26.5900   26.8900   34.9600 C   0  0  0  0  0  0  0  0  0  0  0  0
   27.0600   27.2400   36.1600 N   0  0  0  0  0  0  0  0  0  0  0  0
   28.3000   27.7100   36.2400 N   0  0  0  0  0  0  0  0  0  0  0  0
   29.0500   27.9600   35.1500 C   0  0  0  0  0  0  0  0  0  0  0  0
   30.3400   28.4900   35.2600 C   0  0  0  0  0  0  0  0  0  0  0  0
   31.1100   28.8200   34.1400 C   0  0  0  0  0  0  0  0  0  0  0  0
   30.5200   28.6700   32.8800 C   0  0  0  0  0  0  0  0  0  0  0  0
   29.2900   28.0200   32.7700 C   0  0  0  0  0  0  0  0  0  0  0  0
   28.5200   27.7100   33.8900 C   0  0  0  0  0  0  0  0  0  0  0  0
   27.2700   27.0800   33.7600 C   0  0  0  0  0  0  0  0  0  0  0  0
   26.7500   26.8800   32.4900 N   0  0  0  0  0  0  0  0  0  0  0  0
   23.5270   25.0424   36.3555 C   0  0  0  0  0  0  0  0  0  0  0  0
   23.7171   23.7544   35.8212 C   0  0  0  0  0  0  0  0  0  0  0  0
   22.7901   22.7399   36.0770 C   0  0  0  0  0  0  0  0  0  0  0  0
   21.6725   22.9911   36.8821 C   0  0  0  0  0  0  0  0  0  0  0  0
   20.5020   21.7078   37.1789 S   0  0  0  0  0  6  0  0  0  0  0  0
   21.2478   20.4508   37.5316 O   0  0  0  0  0  0  0  0  0  0  0  0
   19.6164   22.0794   38.3371 O   0  0  0  0  0  0  0  0  0  0  0  0
   19.5395   21.4415   35.7469 N   0  0  0  0  0  0  0  0  0  0  0  0
   18.7953   22.6650   35.4220 C   0  0  0  0  0  0  0  0  0  0  0  0
   18.6059   20.3345   35.9882 C   0  0  0  0  0  0  0  0  0  0  0  0
   21.4875   24.2676   37.4295 C   0  0  0  0  0  0  0  0  0  0  0  0
   22.4140   25.2829   37.1751 C   0  0  0  0  0  0  0  0  0  0  0  0
  1  2  1  0
  2  3  2  0
  2  4  1  0
  4  5  2  0
  5  6  1  0
  6  7  2  0
  7  8  1  0
  8  9  2  0
  9 10  1  0
 10 11  2  0
 11 12  1  0
 12 13  2  0
 13 14  1  0
  1 15  1  0
 15 16  2  0
 16 17  1  0
 17 18  2  0
 18 19  1  0
 19 20  2  0
 19 21  2  0
 19 22  1  0
 22 23  1  0
 22 24  1  0
 18 25  1  0
 25 26  2  0
 13  4  1  0
 26 15  1  0
 12  7  1  0
M  END
>  <AAScore>  (1) 
358.40498608645106

>  <RootName>  (1) 
./4ZLY/04_DeltaGEst/trajectory_00/rank_00/lead_0092

$$$$
