confid_1
     RDKit          3D

 29 33  0  0  0  0  0  0  0  0999 V2000
   24.4800   26.1000   36.1300 N   0  0  0  0  0  0  0  0  0  0  0  0
   25.2500   26.2500   34.9900 C   0  0  0  0  0  0  0  0  0  0  0  0
   24.7400   25.7600   33.9900 O   0  0  0  0  0  0  0  0  0  0  0  0
   26.5900   26.8900   34.9600 C   0  0  0  0  0  0  0  0  0  0  0  0
   27.0600   27.2400   36.1600 N   0  0  0  0  0  0  0  0  0  0  0  0
   28.3000   27.7100   36.2400 N   0  0  0  0  0  0  0  0  0  0  0  0
   29.0500   27.9600   35.1500 C   0  0  0  0  0  0  0  0  0  0  0  0
   30.3400   28.4900   35.2600 C   0  0  0  0  0  0  0  0  0  0  0  0
   31.1100   28.8200   34.1400 C   0  0  0  0  0  0  0  0  0  0  0  0
   30.5200   28.6700   32.8800 C   0  0  0  0  0  0  0  0  0  0  0  0
   29.2900   28.0200   32.7700 C   0  0  0  0  0  0  0  0  0  0  0  0
   28.5200   27.7100   33.8900 C   0  0  0  0  0  0  0  0  0  0  0  0
   27.2700   27.0800   33.7600 C   0  0  0  0  0  0  0  0  0  0  0  0
   26.7500   26.8800   32.4900 N   0  0  0  0  0  0  0  0  0  0  0  0
   23.4357   25.1268   36.3166 C   0  0  0  0  0  0  0  0  0  0  0  0
   22.3682   25.4531   37.1378 N   0  0  0  0  0  0  0  0  0  0  0  0
   21.3241   24.6045   37.4082 C   0  0  0  0  0  0  0  0  0  0  0  0
   21.3859   23.3624   36.8212 C   0  0  0  0  0  0  0  0  0  0  0  0
   20.7471   22.0268   36.6270 C   0  0  2  0  0  0  0  0  0  0  0  0
   20.6144   21.2466   37.9497 C   0  0  0  0  0  0  0  0  0  0  0  0
   20.3827   19.8065   37.7040 N   0  0  0  0  0  0  0  0  0  0  0  0
   20.6345   19.0381   38.9374 C   0  0  0  0  0  0  0  0  0  0  0  0
   20.3531   17.5518   38.6910 C   0  0  0  0  0  0  0  0  0  0  0  0
   19.0144   17.3579   38.2792 O   0  0  0  0  0  0  0  0  0  0  0  0
   18.7833   18.0452   37.0643 C   0  0  0  0  0  0  0  0  0  0  0  0
   19.0034   19.5529   37.2403 C   0  0  0  0  0  0  0  0  0  0  0  0
   21.8767   21.6348   35.7915 C   0  0  0  0  0  0  0  0  0  0  0  0
   22.4690   22.9882   35.9938 C   0  0  0  0  0  0  0  0  0  0  0  0
   23.5208   23.8340   35.7170 C   0  0  0  0  0  0  0  0  0  0  0  0
  1  2  1  0
  2  3  2  0
  2  4  1  0
  4  5  2  0
  5  6  1  0
  6  7  2  0
  7  8  1  0
  8  9  2  0
  9 10  1  0
 10 11  2  0
 11 12  1  0
 12 13  2  0
 13 14  1  0
  1 15  1  0
 15 16  2  0
 16 17  1  0
 17 18  2  0
 18 19  1  0
 19 20  1  1
 20 21  1  0
 21 22  1  0
 22 23  1  0
 23 24  1  0
 24 25  1  0
 25 26  1  0
 19 27  1  0
 27 28  1  0
 28 29  2  0
 13  4  1  0
 29 15  1  0
 12  7  1  0
 28 18  1  0
 26 21  1  0
M  END
>  <AAScore>  (1) 
439.5841489586912

>  <RootName>  (1) 
./4ZLY/04_DeltaGEst/trajectory_00/rank_00/lead_0464

$$$$
