confid_8
     RDKit          3D

 27 30  0  0  0  0  0  0  0  0999 V2000
   24.6900   26.1200   35.5300 N   0  0  0  0  0  0  0  0  0  0  0  0
   25.6600   25.6700   34.6600 C   0  0  0  0  0  0  0  0  0  0  0  0
   25.2400   25.0100   33.7200 O   0  0  0  0  0  0  0  0  0  0  0  0
   27.0300   26.2200   34.8800 C   0  0  0  0  0  0  0  0  0  0  0  0
   27.3500   26.7300   36.0700 N   0  0  0  0  0  0  0  0  0  0  0  0
   28.5700   27.1800   36.3300 N   0  0  0  0  0  0  0  0  0  0  0  0
   29.5300   27.1100   35.3900 C   0  0  0  0  0  0  0  0  0  0  0  0
   30.8300   27.5700   35.6500 C   0  0  0  0  0  0  0  0  0  0  0  0
   31.8500   27.5400   34.6900 C   0  0  0  0  0  0  0  0  0  0  0  0
   31.5100   27.1200   33.4000 C   0  0  0  0  0  0  0  0  0  0  0  0
   30.2200   26.6300   33.1100 C   0  0  0  0  0  0  0  0  0  0  0  0
   29.2400   26.6600   34.1000 C   0  0  0  0  0  0  0  0  0  0  0  0
   27.9300   26.2600   33.8100 C   0  0  0  0  0  0  0  0  0  0  0  0
   27.5200   25.7100   32.6100 N   0  0  0  0  0  0  0  0  0  0  0  0
   31.1844   28.0726   37.0012 C   0  0  0  0  0  0  0  0  0  0  0  0
   30.9838   27.2732   38.1371 C   0  0  0  0  0  0  0  0  0  0  0  0
   31.3240   27.7402   39.4202 C   0  0  0  0  0  0  0  0  0  0  0  0
   30.9949   26.8856   40.6158 C   0  0  0  0  0  0  0  0  0  0  0  0
   32.2434   26.4467   41.4027 C   0  0  0  0  0  0  0  0  0  0  0  0
   33.1427   27.5454   41.8375 N   0  0  0  0  0  0  0  0  0  0  0  0
   34.3921   27.6343   41.0513 C   0  0  0  0  0  0  0  0  0  0  0  0
   35.4252   26.6488   41.5884 C   0  0  0  0  0  0  0  0  0  0  0  0
   32.4798   28.8521   42.0173 C   0  0  0  0  0  0  0  0  0  0  0  0
   32.3382   29.5576   40.7818 O   0  0  0  0  0  0  0  0  0  0  0  0
   31.8997   29.0273   39.5574 C   0  0  0  0  0  0  0  0  0  0  0  0
   32.0844   29.8207   38.4195 C   0  0  0  0  0  0  0  0  0  0  0  0
   31.7373   29.3502   37.1535 C   0  0  0  0  0  0  0  0  0  0  0  0
  1  2  1  0
  2  3  2  0
  2  4  1  0
  4  5  2  0
  5  6  1  0
  6  7  2  0
  7  8  1  0
  8  9  2  0
  9 10  1  0
 10 11  2  0
 11 12  1  0
 12 13  2  0
 13 14  1  0
  8 15  1  0
 15 16  2  0
 16 17  1  0
 17 18  1  0
 18 19  1  0
 19 20  1  0
 20 21  1  0
 21 22  1  0
 20 23  1  0
 23 24  1  0
 24 25  1  0
 25 26  1  0
 26 27  2  0
 13  4  1  0
 27 15  1  0
 12  7  1  0
 25 17  2  0
M  END
>  <AAScore>  (1) 
67.86882303546925

>  <RootName>  (1) 
./4ZLY/04_DeltaGEst/trajectory_02/rank_01/lead_0246

$$$$
