confid_6
     RDKit          3D

 29 32  0  0  0  0  0  0  0  0999 V2000
   25.3300   26.2600   34.7600 N   0  0  0  0  0  0  0  0  0  0  0  0
   26.1200   25.9200   33.6900 C   0  0  0  0  0  0  0  0  0  0  0  0
   25.6300   25.1100   32.9400 O   0  0  0  0  0  0  0  0  0  0  0  0
   27.5200   26.3800   33.4600 C   0  0  0  0  0  0  0  0  0  0  0  0
   28.1600   26.6300   34.6100 N   0  0  0  0  0  0  0  0  0  0  0  0
   29.4800   26.8500   34.5700 N   0  0  0  0  0  0  0  0  0  0  0  0
   30.1900   26.7800   33.4400 C   0  0  0  0  0  0  0  0  0  0  0  0
   31.5600   27.0500   33.5000 C   0  0  0  0  0  0  0  0  0  0  0  0
   32.2700   27.2400   32.3100 C   0  0  0  0  0  0  0  0  0  0  0  0
   31.6100   27.2500   31.0800 C   0  0  0  0  0  0  0  0  0  0  0  0
   30.2700   26.8700   31.0600 C   0  0  0  0  0  0  0  0  0  0  0  0
   29.5100   26.6900   32.2300 C   0  0  0  0  0  0  0  0  0  0  0  0
   28.1400   26.4100   32.2000 C   0  0  0  0  0  0  0  0  0  0  0  0
   27.4300   26.1300   31.0500 N   0  0  0  0  0  0  0  0  0  0  0  0
   26.4777   27.1055   30.5106 C   0  0  0  0  0  0  0  0  0  0  0  0
   26.4192   26.9986   28.9877 C   0  0  0  0  0  0  0  0  0  0  0  0
   26.2796   25.5906   28.5885 N   0  0  0  0  0  0  0  0  0  0  0  0
   25.6893   25.2416   27.3239 C   0  0  0  0  0  0  0  0  0  0  0  0
   24.4865   25.7273   26.9697 C   0  0  0  0  0  0  0  0  0  0  0  0
   23.8542   25.3323   25.6963 C   0  0  0  0  0  0  0  0  0  0  0  0
   24.5452   24.6506   24.7682 C   0  0  0  0  0  0  0  0  0  0  0  0
   23.8811   24.1826   23.4985 C   0  0  0  0  0  0  0  0  0  0  0  0
   23.8618   22.7068   23.4375 N   0  0  0  0  0  0  0  0  0  0  0  0
   22.8521   22.1578   24.3596 C   0  0  0  0  0  0  0  0  0  0  0  0
   23.5674   22.2637   22.0658 C   0  0  0  0  0  0  0  0  0  0  0  0
   26.0188   24.3920   24.9781 C   0  0  0  0  0  0  0  0  0  0  0  0
   26.3377   24.1780   26.4649 C   0  0  0  0  0  0  0  0  0  0  0  0
   26.9992   24.6016   29.2872 N   0  0  0  0  0  0  0  0  0  0  0  0
   27.5605   24.8409   30.4319 C   0  0  0  0  0  0  0  0  0  0  0  0
  1  2  1  0
  2  3  2  0
  2  4  1  0
  4  5  2  0
  5  6  1  0
  6  7  2  0
  7  8  1  0
  8  9  2  0
  9 10  1  0
 10 11  2  0
 11 12  1  0
 12 13  2  0
 13 14  1  0
 14 15  1  0
 15 16  1  0
 16 17  1  0
 17 18  1  0
 18 19  2  0
 19 20  1  0
 20 21  2  0
 21 22  1  0
 22 23  1  0
 23 24  1  0
 23 25  1  0
 21 26  1  0
 26 27  1  0
 17 28  1  0
 28 29  2  0
 13  4  1  0
 29 14  1  0
 12  7  1  0
 27 18  1  0
M  END
>  <AAScore>  (1) 
595.0431633220202

>  <RootName>  (1) 
./4ZLY/04_DeltaGEst/trajectory_03/rank_01/lead_0173

$$$$
