confid_0
     RDKit          3D

 29 32  0  0  0  0  0  0  0  0999 V2000
   24.5500   26.3900   36.2500 N   0  0  0  0  0  0  0  0  0  0  0  0
   25.6000   26.1300   35.4000 C   0  0  0  0  0  0  0  0  0  0  0  0
   25.4300   25.4300   34.4200 O   0  0  0  0  0  0  0  0  0  0  0  0
   26.9800   26.6300   35.7100 C   0  0  0  0  0  0  0  0  0  0  0  0
   27.3200   26.8200   36.9800 N   0  0  0  0  0  0  0  0  0  0  0  0
   28.4700   27.4000   37.3100 N   0  0  0  0  0  0  0  0  0  0  0  0
   29.4000   27.6300   36.3700 C   0  0  0  0  0  0  0  0  0  0  0  0
   30.6600   28.0500   36.8000 C   0  0  0  0  0  0  0  0  0  0  0  0
   31.5700   28.3600   35.7800 C   0  0  0  0  0  0  0  0  0  0  0  0
   31.3700   28.1000   34.4300 C   0  0  0  0  0  0  0  0  0  0  0  0
   30.1200   27.5900   34.0500 C   0  0  0  0  0  0  0  0  0  0  0  0
   29.1500   27.3400   35.0300 C   0  0  0  0  0  0  0  0  0  0  0  0
   27.8800   26.8900   34.6600 C   0  0  0  0  0  0  0  0  0  0  0  0
   27.4800   26.6100   33.3700 N   0  0  0  0  0  0  0  0  0  0  0  0
   23.2079   25.8171   36.0805 C   0  0  0  0  0  0  0  0  0  0  0  0
   22.1258   26.8815   36.3794 C   0  0  0  0  0  0  0  0  0  0  0  0
   20.8993   26.3004   37.1101 C   0  0  0  0  0  0  0  0  0  0  0  0
   20.5547   24.9427   36.6411 N   0  0  0  0  0  0  0  0  0  0  0  0
   20.0120   24.9471   35.2652 C   0  0  0  0  0  0  0  0  0  0  0  0
   19.1240   23.7497   35.0536 C   0  0  0  0  0  0  0  0  0  0  0  0
   19.4972   22.7263   34.1705 C   0  0  0  0  0  0  0  0  0  0  0  0
   18.6585   21.6224   34.0044 C   0  0  0  0  0  0  0  0  0  0  0  0
   17.4908   21.5429   34.6953 N   0  0  0  0  0  0  0  0  0  0  0  0
   17.1013   22.5200   35.5617 C   0  0  0  0  0  0  0  0  0  0  0  0
   15.8964   22.4175   36.2630 O   0  0  0  0  0  0  0  0  0  0  0  0
   15.0145   21.3105   36.1199 C   0  0  0  0  0  0  0  0  0  0  0  0
   17.9147   23.6405   35.7550 C   0  0  0  0  0  0  0  0  0  0  0  0
   21.6556   23.9586   36.8298 C   0  0  0  0  0  0  0  0  0  0  0  0
   23.0517   24.5947   36.9906 C   0  0  0  0  0  0  0  0  0  0  0  0
  1  2  1  0
  2  3  2  0
  2  4  1  0
  4  5  2  0
  5  6  1  0
  6  7  2  0
  7  8  1  0
  8  9  2  0
  9 10  1  0
 10 11  2  0
 11 12  1  0
 12 13  2  0
 13 14  1  0
  1 15  1  0
 15 16  1  0
 16 17  1  0
 17 18  1  0
 18 19  1  0
 19 20  1  0
 20 21  2  0
 21 22  1  0
 22 23  2  0
 23 24  1  0
 24 25  1  0
 25 26  1  0
 24 27  2  0
 18 28  1  0
 28 29  1  0
 13  4  1  0
 29 15  1  0
 12  7  1  0
 27 20  1  0
M  END
>  <AAScore>  (1) 
935.9266209607388

>  <RootName>  (1) 
./4ZLY/04_DeltaGEst/trajectory_01/rank_00/lead_0301

$$$$
