confid_8
     RDKit          3D

 27 30  0  0  0  0  0  0  0  0999 V2000
   24.6900   26.1200   35.5300 N   0  0  0  0  0  0  0  0  0  0  0  0
   25.6600   25.6700   34.6600 C   0  0  0  0  0  0  0  0  0  0  0  0
   25.2400   25.0100   33.7200 O   0  0  0  0  0  0  0  0  0  0  0  0
   27.0300   26.2200   34.8800 C   0  0  0  0  0  0  0  0  0  0  0  0
   27.3500   26.7300   36.0700 N   0  0  0  0  0  0  0  0  0  0  0  0
   28.5700   27.1800   36.3300 N   0  0  0  0  0  0  0  0  0  0  0  0
   29.5300   27.1100   35.3900 C   0  0  0  0  0  0  0  0  0  0  0  0
   30.8300   27.5700   35.6500 C   0  0  0  0  0  0  0  0  0  0  0  0
   31.8500   27.5400   34.6900 C   0  0  0  0  0  0  0  0  0  0  0  0
   31.5100   27.1200   33.4000 C   0  0  0  0  0  0  0  0  0  0  0  0
   30.2200   26.6300   33.1100 C   0  0  0  0  0  0  0  0  0  0  0  0
   29.2400   26.6600   34.1000 C   0  0  0  0  0  0  0  0  0  0  0  0
   27.9300   26.2600   33.8100 C   0  0  0  0  0  0  0  0  0  0  0  0
   27.5200   25.7100   32.6100 N   0  0  0  0  0  0  0  0  0  0  0  0
   23.3225   26.3738   35.1414 C   0  0  0  0  0  0  0  0  0  0  0  0
   23.0419   26.6369   33.8245 N   0  0  0  0  0  0  0  0  0  0  0  0
   21.7823   26.8820   33.3722 C   0  0  0  0  0  0  0  0  0  0  0  0
   20.7411   26.8634   34.2860 C   0  0  0  0  0  0  0  0  0  0  0  0
   19.3262   27.0502   34.0970 C   0  0  0  0  0  0  0  0  0  0  0  0
   18.7488   27.2951   33.0041 O   0  0  0  0  0  0  0  0  0  0  0  0
   18.6618   26.9058   35.3447 N   0  0  0  0  0  0  0  0  0  0  0  0
   19.6590   26.6213   36.3802 C   0  0  0  0  0  0  0  0  0  0  0  0
   20.9637   26.6101   35.6199 C   0  0  0  0  0  0  0  0  0  0  0  0
   22.2638   26.3691   36.0993 C   0  0  0  0  0  0  0  0  0  0  0  0
   22.4863   26.0389   37.5599 C   0  0  0  0  0  0  0  0  0  0  0  0
   22.6803   24.5382   37.7579 C   0  0  0  0  0  0  0  0  0  0  0  0
   17.2259   27.0250   35.5605 C   0  0  0  0  0  0  0  0  0  0  0  0
  1  2  1  0
  2  3  2  0
  2  4  1  0
  4  5  2  0
  5  6  1  0
  6  7  2  0
  7  8  1  0
  8  9  2  0
  9 10  1  0
 10 11  2  0
 11 12  1  0
 12 13  2  0
 13 14  1  0
  1 15  1  0
 15 16  2  0
 16 17  1  0
 17 18  2  0
 18 19  1  0
 19 20  2  0
 19 21  1  0
 21 22  1  0
 22 23  1  0
 23 24  2  0
 24 25  1  0
 25 26  1  0
 21 27  1  0
 13  4  1  0
 24 15  1  0
 12  7  1  0
 23 18  1  0
M  END
>  <AAScore>  (1) 
1337.919804297665

>  <RootName>  (1) 
./4ZLY/04_DeltaGEst/trajectory_02/rank_00/lead_0459

$$$$
