confid_15
     RDKit          3D

 32 35  0  0  0  0  0  0  0  0999 V2000
   24.2000   26.2400   35.6900 N   0  0  0  0  0  0  0  0  0  0  0  0
   24.8500   26.2800   34.4800 C   0  0  0  0  0  0  0  0  0  0  0  0
   24.3100   25.7400   33.5400 O   0  0  0  0  0  0  0  0  0  0  0  0
   26.1800   26.9700   34.4700 C   0  0  0  0  0  0  0  0  0  0  0  0
   26.6500   27.6000   35.5500 N   0  0  0  0  0  0  0  0  0  0  0  0
   27.7900   28.2700   35.6200 N   0  0  0  0  0  0  0  0  0  0  0  0
   28.5400   28.3000   34.5100 C   0  0  0  0  0  0  0  0  0  0  0  0
   29.7700   28.9400   34.5600 C   0  0  0  0  0  0  0  0  0  0  0  0
   30.7000   28.8900   33.5000 C   0  0  0  0  0  0  0  0  0  0  0  0
   30.3700   28.1400   32.3700 C   0  0  0  0  0  0  0  0  0  0  0  0
   29.1200   27.5200   32.2800 C   0  0  0  0  0  0  0  0  0  0  0  0
   28.2100   27.6100   33.3300 C   0  0  0  0  0  0  0  0  0  0  0  0
   26.9700   26.9700   33.3100 C   0  0  0  0  0  0  0  0  0  0  0  0
   26.5300   26.2400   32.2200 N   0  0  0  0  0  0  0  0  0  0  0  0
   23.1177   25.3333   35.9624 C   0  0  0  0  0  0  0  0  0  0  0  0
   23.2149   24.0927   35.5412 N   0  0  0  0  0  0  0  0  0  0  0  0
   22.2500   23.0206   35.6327 C   0  0  0  0  0  0  0  0  0  0  0  0
   21.4130   22.8668   36.6721 C   0  0  0  0  0  0  0  0  0  0  0  0
   21.5543   23.7705   37.8326 C   0  0  0  0  0  0  0  0  0  0  0  0
   20.9831   25.0121   37.3413 N   0  0  0  0  0  0  0  0  0  0  0  0
   19.5797   24.9718   36.8616 C   0  0  0  0  0  0  0  0  0  0  0  0
   19.0115   23.5158   36.7624 C   0  0  0  0  0  0  0  0  0  0  0  0
   20.0481   22.5285   36.3846 N   0  0  0  0  0  0  0  0  0  0  0  0
   19.6964   21.2573   35.7421 C   0  0  0  0  0  0  0  0  0  0  0  0
   18.6957   20.4712   36.6025 C   0  0  0  0  0  0  0  0  0  0  0  0
   18.5655   19.0755   36.1350 N   0  0  0  0  0  0  0  0  0  0  0  0
   17.9561   18.2083   37.1553 C   0  0  0  0  0  0  0  0  0  0  0  0
   17.9937   18.8899   34.7746 C   0  0  0  0  0  0  0  0  0  0  0  0
   16.7387   19.7274   34.4290 C   0  0  0  0  0  0  0  0  0  0  0  0
   15.5118   19.3937   35.2710 C   0  0  0  0  0  0  0  0  0  0  0  0
   21.9025   25.8752   36.6525 C   0  0  0  0  0  0  0  0  0  0  0  0
   21.6729   27.1121   36.6112 O   0  0  0  0  0  0  0  0  0  0  0  0
  1  2  1  0
  2  3  2  0
  2  4  1  0
  4  5  2  0
  5  6  1  0
  6  7  2  0
  7  8  1  0
  8  9  2  0
  9 10  1  0
 10 11  2  0
 11 12  1  0
 12 13  2  0
 13 14  1  0
  1 15  1  0
 15 16  2  0
 16 17  1  0
 17 18  2  0
 18 19  1  0
 19 20  1  0
 20 21  1  0
 21 22  1  0
 22 23  1  0
 23 24  1  0
 24 25  1  0
 25 26  1  0
 26 27  1  0
 26 28  1  0
 28 29  1  0
 29 30  1  0
 20 31  1  0
 31 32  2  0
 13  4  1  0
 31 15  1  0
 12  7  1  0
 23 18  1  0
M  END
>  <AAScore>  (1) 
909.808466203874

>  <RootName>  (1) 
./4ZLY/04_DeltaGEst/trajectory_04/rank_00/lead_0466

$$$$
