confid_9
     RDKit          3D

 30 34  0  0  0  0  0  0  0  0999 V2000
   24.5700   26.8800   35.5900 N   0  0  0  0  0  0  0  0  0  0  0  0
   25.5000   26.4000   34.6900 C   0  0  0  0  0  0  0  0  0  0  0  0
   25.1700   25.5200   33.9100 O   0  0  0  0  0  0  0  0  0  0  0  0
   26.8400   27.0200   34.7400 C   0  0  0  0  0  0  0  0  0  0  0  0
   27.3800   27.2800   35.9400 N   0  0  0  0  0  0  0  0  0  0  0  0
   28.6200   27.7400   36.0300 N   0  0  0  0  0  0  0  0  0  0  0  0
   29.3800   28.0000   34.9600 C   0  0  0  0  0  0  0  0  0  0  0  0
   30.6700   28.5000   35.1300 C   0  0  0  0  0  0  0  0  0  0  0  0
   31.5400   28.6100   34.0300 C   0  0  0  0  0  0  0  0  0  0  0  0
   31.0900   28.2200   32.7700 C   0  0  0  0  0  0  0  0  0  0  0  0
   29.8000   27.7000   32.6000 C   0  0  0  0  0  0  0  0  0  0  0  0
   28.9600   27.5500   33.7100 C   0  0  0  0  0  0  0  0  0  0  0  0
   27.6600   27.0300   33.5900 C   0  0  0  0  0  0  0  0  0  0  0  0
   27.1600   26.7400   32.3400 N   0  0  0  0  0  0  0  0  0  0  0  0
   23.1604   26.6024   35.5223 C   0  0  0  0  0  0  0  0  0  0  0  0
   22.4592   26.4441   36.7076 N   0  0  0  0  0  0  0  0  0  0  0  0
   21.1134   26.1804   36.7700 C   0  0  0  0  0  0  0  0  0  0  0  0
   20.4581   26.0866   35.5651 C   0  0  0  0  0  0  0  0  0  0  0  0
   19.1694   25.8530   34.8463 C   0  0  1  0  0  0  0  0  0  0  0  0
   18.2635   26.8672   35.1070 F   0  0  0  0  0  0  0  0  0  0  0  0
   19.8666   26.0437   33.5793 C   0  0  1  0  0  0  0  0  0  0  0  0
   21.1395   26.2634   34.3372 C   0  0  0  0  0  0  0  0  0  0  0  0
   22.4884   26.5332   34.2657 C   0  0  0  0  0  0  0  0  0  0  0  0
   19.8520   24.8422   32.6997 N   0  0  0  0  0  0  0  0  0  0  0  0
   20.2629   25.2130   31.3288 C   0  0  0  0  0  0  0  0  0  0  0  0
   20.4347   23.9755   30.4252 C   0  0  0  0  0  0  0  0  0  0  0  0
   19.7511   22.8133   31.0173 N   0  0  0  0  0  0  0  0  0  0  0  0
   20.3712   22.4491   32.3096 C   0  0  0  0  0  0  0  0  0  0  0  0
   20.6521   23.6915   33.1790 C   0  0  0  0  0  0  0  0  0  0  0  0
   19.7878   21.6699   30.0924 C   0  0  0  0  0  0  0  0  0  0  0  0
  1  2  1  0
  2  3  2  0
  2  4  1  0
  4  5  2  0
  5  6  1  0
  6  7  2  0
  7  8  1  0
  8  9  2  0
  9 10  1  0
 10 11  2  0
 11 12  1  0
 12 13  2  0
 13 14  1  0
  1 15  1  0
 15 16  2  0
 16 17  1  0
 17 18  2  0
 18 19  1  0
 19 20  1  1
 19 21  1  0
 21 22  1  0
 22 23  2  0
 21 24  1  6
 24 25  1  0
 25 26  1  0
 26 27  1  0
 27 28  1  0
 28 29  1  0
 27 30  1  0
 13  4  1  0
 23 15  1  0
 29 24  1  0
 12  7  1  0
 22 18  1  0
M  END
>  <AAScore>  (1) 
1802.9458541005356

>  <RootName>  (1) 
./4ZLY/04_DeltaGEst/trajectory_05/rank_00/lead_0114

$$$$
