confid_5
     RDKit          3D

 28 31  0  0  0  0  0  0  0  0999 V2000
   25.3300   26.2600   34.7600 N   0  0  0  0  0  0  0  0  0  0  0  0
   26.1200   25.9200   33.6900 C   0  0  0  0  0  0  0  0  0  0  0  0
   25.6300   25.1100   32.9400 O   0  0  0  0  0  0  0  0  0  0  0  0
   27.5200   26.3800   33.4600 C   0  0  0  0  0  0  0  0  0  0  0  0
   28.1600   26.6300   34.6100 N   0  0  0  0  0  0  0  0  0  0  0  0
   29.4800   26.8500   34.5700 N   0  0  0  0  0  0  0  0  0  0  0  0
   30.1900   26.7800   33.4400 C   0  0  0  0  0  0  0  0  0  0  0  0
   31.5600   27.0500   33.5000 C   0  0  0  0  0  0  0  0  0  0  0  0
   32.2700   27.2400   32.3100 C   0  0  0  0  0  0  0  0  0  0  0  0
   31.6100   27.2500   31.0800 C   0  0  0  0  0  0  0  0  0  0  0  0
   30.2700   26.8700   31.0600 C   0  0  0  0  0  0  0  0  0  0  0  0
   29.5100   26.6900   32.2300 C   0  0  0  0  0  0  0  0  0  0  0  0
   28.1400   26.4100   32.2000 C   0  0  0  0  0  0  0  0  0  0  0  0
   27.4300   26.1300   31.0500 N   0  0  0  0  0  0  0  0  0  0  0  0
   26.5056   27.1291   30.4985 C   0  0  0  0  0  0  0  0  0  0  0  0
   26.6034   27.2125   28.9571 C   0  0  0  0  0  0  0  0  0  0  0  0
   27.3134   26.0588   28.3529 N   0  0  0  0  0  0  0  0  0  0  0  0
   27.0435   25.9850   26.9034 C   0  0  0  0  0  0  0  0  0  0  0  0
   28.1111   25.1734   26.2109 C   0  0  0  0  0  0  0  0  0  0  0  0
   27.8108   23.8994   25.6981 C   0  0  0  0  0  0  0  0  0  0  0  0
   28.8060   23.1354   25.0810 C   0  0  0  0  0  0  0  0  0  0  0  0
   28.5099   21.9091   24.5875 F   0  0  0  0  0  0  0  0  0  0  0  0
   30.1048   23.6358   24.9712 C   0  0  0  0  0  0  0  0  0  0  0  0
   30.4139   24.8996   25.4797 C   0  0  0  0  0  0  0  0  0  0  0  0
   29.4233   25.6682   26.1004 C   0  0  0  0  0  0  0  0  0  0  0  0
   29.7452   26.8911   26.5928 F   0  0  0  0  0  0  0  0  0  0  0  0
   26.9449   24.8043   29.0321 C   0  0  0  0  0  0  0  0  0  0  0  0
   27.5683   24.8083   30.4245 C   0  0  0  0  0  0  0  0  0  0  0  0
  1  2  1  0
  2  3  2  0
  2  4  1  0
  4  5  2  0
  5  6  1  0
  6  7  2  0
  7  8  1  0
  8  9  2  0
  9 10  1  0
 10 11  2  0
 11 12  1  0
 12 13  2  0
 13 14  1  0
 14 15  1  0
 15 16  1  0
 16 17  1  0
 17 18  1  0
 18 19  1  0
 19 20  2  0
 20 21  1  0
 21 22  1  0
 21 23  2  0
 23 24  1  0
 24 25  2  0
 25 26  1  0
 17 27  1  0
 27 28  1  0
 13  4  1  0
 28 14  1  0
 12  7  1  0
 25 19  1  0
M  END
>  <AAScore>  (1) 
-3.0682954629471264

>  <RootName>  (1) 
./4ZLY/04_DeltaGEst/trajectory_03/rank_01/lead_0283

$$$$
