confid_16
     RDKit          3D

 29 33  0  0  0  0  0  0  0  0999 V2000
   24.6900   26.1200   35.5300 N   0  0  0  0  0  0  0  0  0  0  0  0
   25.6600   25.6700   34.6600 C   0  0  0  0  0  0  0  0  0  0  0  0
   25.2400   25.0100   33.7200 O   0  0  0  0  0  0  0  0  0  0  0  0
   27.0300   26.2200   34.8800 C   0  0  0  0  0  0  0  0  0  0  0  0
   27.3500   26.7300   36.0700 N   0  0  0  0  0  0  0  0  0  0  0  0
   28.5700   27.1800   36.3300 N   0  0  0  0  0  0  0  0  0  0  0  0
   29.5300   27.1100   35.3900 C   0  0  0  0  0  0  0  0  0  0  0  0
   30.8300   27.5700   35.6500 C   0  0  0  0  0  0  0  0  0  0  0  0
   31.8500   27.5400   34.6900 C   0  0  0  0  0  0  0  0  0  0  0  0
   31.5100   27.1200   33.4000 C   0  0  0  0  0  0  0  0  0  0  0  0
   30.2200   26.6300   33.1100 C   0  0  0  0  0  0  0  0  0  0  0  0
   29.2400   26.6600   34.1000 C   0  0  0  0  0  0  0  0  0  0  0  0
   27.9300   26.2600   33.8100 C   0  0  0  0  0  0  0  0  0  0  0  0
   27.5200   25.7100   32.6100 N   0  0  0  0  0  0  0  0  0  0  0  0
   31.1485   28.0650   36.9607 N   0  0  0  0  0  0  0  0  0  0  0  0
   31.4837   29.4863   37.1295 C   0  0  0  0  0  0  0  0  0  0  0  0
   31.8034   29.8084   38.5910 C   0  0  0  0  0  0  0  0  0  0  0  0
   30.7998   29.1823   39.4631 N   0  0  0  0  0  0  0  0  0  0  0  0
   30.1268   29.9327   40.4910 C   0  0  0  0  0  0  0  0  0  0  0  0
   29.6461   31.2297   40.2446 C   0  0  0  0  0  0  0  0  0  0  0  0
   28.9741   31.9376   41.2525 C   0  0  0  0  0  0  0  0  0  0  0  0
   28.7898   31.3134   42.5028 C   0  0  0  0  0  0  0  0  0  0  0  0
   29.2626   30.0161   42.7048 C   0  0  0  0  0  0  0  0  0  0  0  0
   29.9085   29.3606   41.7066 N   0  0  0  0  0  0  0  0  0  0  0  0
   28.4772   33.3359   40.9243 C   0  0  0  0  0  0  0  0  0  0  0  0
   27.1765   33.7859   41.5761 C   0  0  0  0  0  0  0  0  0  0  0  0
   28.5054   34.3653   42.0459 C   0  0  0  0  0  0  0  0  0  0  0  0
   30.4961   27.7506   39.3140 C   0  0  0  0  0  0  0  0  0  0  0  0
   31.2126   27.1414   38.1010 C   0  0  0  0  0  0  0  0  0  0  0  0
  1  2  1  0
  2  3  2  0
  2  4  1  0
  4  5  2  0
  5  6  1  0
  6  7  2  0
  7  8  1  0
  8  9  2  0
  9 10  1  0
 10 11  2  0
 11 12  1  0
 12 13  2  0
 13 14  1  0
  8 15  1  0
 15 16  1  0
 16 17  1  0
 17 18  1  0
 18 19  1  0
 19 20  2  0
 20 21  1  0
 21 22  2  0
 22 23  1  0
 23 24  2  0
 21 25  1  0
 25 26  1  0
 26 27  1  0
 18 28  1  0
 28 29  1  0
 13  4  1  0
 29 15  1  0
 12  7  1  0
 24 19  1  0
 27 25  1  0
M  END
>  <AAScore>  (1) 
8.276059258728806

>  <RootName>  (1) 
./4ZLY/04_DeltaGEst/trajectory_02/rank_01/lead_0222

$$$$
