confid_11
     RDKit          3D

 28 31  0  0  0  0  0  0  0  0999 V2000
   25.3300   26.2600   34.7600 N   0  0  0  0  0  0  0  0  0  0  0  0
   26.1200   25.9200   33.6900 C   0  0  0  0  0  0  0  0  0  0  0  0
   25.6300   25.1100   32.9400 O   0  0  0  0  0  0  0  0  0  0  0  0
   27.5200   26.3800   33.4600 C   0  0  0  0  0  0  0  0  0  0  0  0
   28.1600   26.6300   34.6100 N   0  0  0  0  0  0  0  0  0  0  0  0
   29.4800   26.8500   34.5700 N   0  0  0  0  0  0  0  0  0  0  0  0
   30.1900   26.7800   33.4400 C   0  0  0  0  0  0  0  0  0  0  0  0
   31.5600   27.0500   33.5000 C   0  0  0  0  0  0  0  0  0  0  0  0
   32.2700   27.2400   32.3100 C   0  0  0  0  0  0  0  0  0  0  0  0
   31.6100   27.2500   31.0800 C   0  0  0  0  0  0  0  0  0  0  0  0
   30.2700   26.8700   31.0600 C   0  0  0  0  0  0  0  0  0  0  0  0
   29.5100   26.6900   32.2300 C   0  0  0  0  0  0  0  0  0  0  0  0
   28.1400   26.4100   32.2000 C   0  0  0  0  0  0  0  0  0  0  0  0
   27.4300   26.1300   31.0500 N   0  0  0  0  0  0  0  0  0  0  0  0
   24.1416   25.5691   35.1978 C   0  0  0  0  0  0  0  0  0  0  0  0
   23.8029   24.3463   34.6846 N   0  0  0  0  0  0  0  0  0  0  0  0
   22.6852   23.7220   35.1312 C   0  0  0  0  0  0  0  0  0  0  0  0
   22.1680   22.4008   34.7360 C   0  0  0  0  0  0  0  0  0  0  0  0
   20.8719   22.2646   35.4519 N   0  0  0  0  0  0  0  0  0  0  0  0
   20.7297   20.9352   36.0800 C   0  0  0  0  0  0  0  0  0  0  0  0
   19.2679   20.6396   36.4276 C   0  0  0  0  0  0  0  0  0  0  0  0
   18.8277   21.4722   37.4402 F   0  0  0  0  0  0  0  0  0  0  0  0
   19.1540   19.3284   36.8522 F   0  0  0  0  0  0  0  0  0  0  0  0
   18.4713   20.8196   35.3109 F   0  0  0  0  0  0  0  0  0  0  0  0
   20.7866   23.3832   36.4299 C   0  0  0  0  0  0  0  0  0  0  0  0
   21.9072   24.2755   36.0871 C   0  0  0  0  0  0  0  0  0  0  0  0
   22.2146   25.4758   36.6375 N   0  0  0  0  0  0  0  0  0  0  0  0
   23.3254   26.1398   36.2038 C   0  0  0  0  0  0  0  0  0  0  0  0
  1  2  1  0
  2  3  2  0
  2  4  1  0
  4  5  2  0
  5  6  1  0
  6  7  2  0
  7  8  1  0
  8  9  2  0
  9 10  1  0
 10 11  2  0
 11 12  1  0
 12 13  2  0
 13 14  1  0
  1 15  1  0
 15 16  2  0
 16 17  1  0
 17 18  1  0
 18 19  1  0
 19 20  1  0
 20 21  1  0
 21 22  1  0
 21 23  1  0
 21 24  1  0
 19 25  1  0
 25 26  1  0
 26 27  1  0
 27 28  2  0
 13  4  1  0
 28 15  1  0
 12  7  1  0
 26 17  2  0
M  END
>  <AAScore>  (1) 
41959.95116017595

>  <RootName>  (1) 
./4ZLY/04_DeltaGEst/trajectory_03/rank_00/lead_0201

$$$$
