confid_3
     RDKit          3D

 30 33  0  0  0  0  0  0  0  0999 V2000
   25.3300   26.2600   34.7600 N   0  0  0  0  0  0  0  0  0  0  0  0
   26.1200   25.9200   33.6900 C   0  0  0  0  0  0  0  0  0  0  0  0
   25.6300   25.1100   32.9400 O   0  0  0  0  0  0  0  0  0  0  0  0
   27.5200   26.3800   33.4600 C   0  0  0  0  0  0  0  0  0  0  0  0
   28.1600   26.6300   34.6100 N   0  0  0  0  0  0  0  0  0  0  0  0
   29.4800   26.8500   34.5700 N   0  0  0  0  0  0  0  0  0  0  0  0
   30.1900   26.7800   33.4400 C   0  0  0  0  0  0  0  0  0  0  0  0
   31.5600   27.0500   33.5000 C   0  0  0  0  0  0  0  0  0  0  0  0
   32.2700   27.2400   32.3100 C   0  0  0  0  0  0  0  0  0  0  0  0
   31.6100   27.2500   31.0800 C   0  0  0  0  0  0  0  0  0  0  0  0
   30.2700   26.8700   31.0600 C   0  0  0  0  0  0  0  0  0  0  0  0
   29.5100   26.6900   32.2300 C   0  0  0  0  0  0  0  0  0  0  0  0
   28.1400   26.4100   32.2000 C   0  0  0  0  0  0  0  0  0  0  0  0
   27.4300   26.1300   31.0500 N   0  0  0  0  0  0  0  0  0  0  0  0
   26.4969   27.1238   30.5100 C   0  0  0  0  0  0  0  0  0  0  0  0
   26.5196   27.1353   28.9662 C   0  0  0  0  0  0  0  0  0  0  0  0
   26.8455   25.8227   28.3433 N   0  0  0  0  0  0  0  0  0  0  0  0
   26.1268   25.6658   27.0616 C   0  0  0  0  0  0  0  0  0  0  0  0
   26.7276   24.5600   26.2293 C   0  0  0  0  0  0  0  0  0  0  0  0
   26.0308   23.3651   25.9993 C   0  0  0  0  0  0  0  0  0  0  0  0
   26.6013   22.3746   25.2640 N   0  0  0  0  0  0  0  0  0  0  0  0
   27.8443   22.5240   24.7298 C   0  0  0  0  0  0  0  0  0  0  0  0
   28.5449   23.6700   24.9578 N   0  0  0  0  0  0  0  0  0  0  0  0
   28.0131   24.6859   25.6879 C   0  0  0  0  0  0  0  0  0  0  0  0
   28.4738   21.3968   23.9693 C   0  0  0  0  0  0  0  0  0  0  0  0
   29.3857   21.8901   23.0496 F   0  0  0  0  0  0  0  0  0  0  0  0
   27.5019   20.6736   23.2949 F   0  0  0  0  0  0  0  0  0  0  0  0
   29.1286   20.5617   24.8535 F   0  0  0  0  0  0  0  0  0  0  0  0
   26.5888   24.6849   29.2468 C   0  0  0  0  0  0  0  0  0  0  0  0
   27.5152   24.7921   30.4557 C   0  0  0  0  0  0  0  0  0  0  0  0
  1  2  1  0
  2  3  2  0
  2  4  1  0
  4  5  2  0
  5  6  1  0
  6  7  2  0
  7  8  1  0
  8  9  2  0
  9 10  1  0
 10 11  2  0
 11 12  1  0
 12 13  2  0
 13 14  1  0
 14 15  1  0
 15 16  1  0
 16 17  1  0
 17 18  1  0
 18 19  1  0
 19 20  2  0
 20 21  1  0
 21 22  2  0
 22 23  1  0
 23 24  2  0
 22 25  1  0
 25 26  1  0
 25 27  1  0
 25 28  1  0
 17 29  1  0
 29 30  1  0
 13  4  1  0
 30 14  1  0
 12  7  1  0
 24 19  1  0
M  END
>  <AAScore>  (1) 
1.0271593674909734

>  <RootName>  (1) 
./4ZLY/04_DeltaGEst/trajectory_03/rank_01/lead_0151

$$$$
