confid_3
     RDKit          3D

 28 31  0  0  0  0  0  0  0  0999 V2000
   24.5500   26.3900   36.2500 N   0  0  0  0  0  0  0  0  0  0  0  0
   25.6000   26.1300   35.4000 C   0  0  0  0  0  0  0  0  0  0  0  0
   25.4300   25.4300   34.4200 O   0  0  0  0  0  0  0  0  0  0  0  0
   26.9800   26.6300   35.7100 C   0  0  0  0  0  0  0  0  0  0  0  0
   27.3200   26.8200   36.9800 N   0  0  0  0  0  0  0  0  0  0  0  0
   28.4700   27.4000   37.3100 N   0  0  0  0  0  0  0  0  0  0  0  0
   29.4000   27.6300   36.3700 C   0  0  0  0  0  0  0  0  0  0  0  0
   30.6600   28.0500   36.8000 C   0  0  0  0  0  0  0  0  0  0  0  0
   31.5700   28.3600   35.7800 C   0  0  0  0  0  0  0  0  0  0  0  0
   31.3700   28.1000   34.4300 C   0  0  0  0  0  0  0  0  0  0  0  0
   30.1200   27.5900   34.0500 C   0  0  0  0  0  0  0  0  0  0  0  0
   29.1500   27.3400   35.0300 C   0  0  0  0  0  0  0  0  0  0  0  0
   27.8800   26.8900   34.6600 C   0  0  0  0  0  0  0  0  0  0  0  0
   27.4800   26.6100   33.3700 N   0  0  0  0  0  0  0  0  0  0  0  0
   23.1790   25.9191   36.0194 C   0  0  2  0  0  0  0  0  0  0  0  0
   22.2269   27.1143   35.7848 C   0  0  0  0  0  0  0  0  0  0  0  0
   21.9266   27.9164   37.0750 C   0  0  0  0  0  0  0  0  0  0  0  0
   21.4941   27.0530   38.1925 N   0  0  0  0  0  0  0  0  0  0  0  0
   20.9788   27.6800   39.3784 C   0  0  0  0  0  0  0  0  0  0  0  0
   21.5218   27.4615   40.4942 O   0  0  0  0  0  0  0  0  0  0  0  0
   19.8560   28.6643   39.2939 C   0  0  0  0  0  0  0  0  0  0  0  0
   21.9427   25.6845   38.2045 C   0  0  0  0  0  0  0  0  0  0  0  0
   21.5853   24.6106   39.0127 C   0  0  0  0  0  0  0  0  0  0  0  0
   20.6522   24.6022   40.1804 C   0  0  0  0  0  0  0  0  0  0  0  0
   22.1738   23.4916   38.5316 N   0  0  0  0  0  0  0  0  0  0  0  0
   22.8649   23.8255   37.4497 N   0  0  0  0  0  0  0  0  0  0  0  0
   22.7077   25.1418   37.2105 C   0  0  0  0  0  0  0  0  0  0  0  0
   23.5614   22.8628   36.6050 C   0  0  0  0  0  0  0  0  0  0  0  0
  1  2  1  0
  2  3  2  0
  2  4  1  0
  4  5  2  0
  5  6  1  0
  6  7  2  0
  7  8  1  0
  8  9  2  0
  9 10  1  0
 10 11  2  0
 11 12  1  0
 12 13  2  0
 13 14  1  0
 15  1  1  1
 15 16  1  0
 16 17  1  0
 17 18  1  0
 18 19  1  0
 19 20  2  0
 19 21  1  0
 18 22  1  0
 22 23  1  0
 23 24  1  0
 23 25  2  0
 25 26  1  0
 26 27  1  0
 26 28  1  0
 13  4  1  0
 27 15  1  0
 12  7  1  0
 27 22  2  0
M  END
>  <AAScore>  (1) 
5191.995756970298

>  <RootName>  (1) 
./4ZLY/04_DeltaGEst/trajectory_01/rank_00/lead_0403

$$$$
