confid_14
     RDKit          3D

 28 31  0  0  0  0  0  0  0  0999 V2000
   25.3300   26.2600   34.7600 N   0  0  0  0  0  0  0  0  0  0  0  0
   26.1200   25.9200   33.6900 C   0  0  0  0  0  0  0  0  0  0  0  0
   25.6300   25.1100   32.9400 O   0  0  0  0  0  0  0  0  0  0  0  0
   27.5200   26.3800   33.4600 C   0  0  0  0  0  0  0  0  0  0  0  0
   28.1600   26.6300   34.6100 N   0  0  0  0  0  0  0  0  0  0  0  0
   29.4800   26.8500   34.5700 N   0  0  0  0  0  0  0  0  0  0  0  0
   30.1900   26.7800   33.4400 C   0  0  0  0  0  0  0  0  0  0  0  0
   31.5600   27.0500   33.5000 C   0  0  0  0  0  0  0  0  0  0  0  0
   32.2700   27.2400   32.3100 C   0  0  0  0  0  0  0  0  0  0  0  0
   31.6100   27.2500   31.0800 C   0  0  0  0  0  0  0  0  0  0  0  0
   30.2700   26.8700   31.0600 C   0  0  0  0  0  0  0  0  0  0  0  0
   29.5100   26.6900   32.2300 C   0  0  0  0  0  0  0  0  0  0  0  0
   28.1400   26.4100   32.2000 C   0  0  0  0  0  0  0  0  0  0  0  0
   27.4300   26.1300   31.0500 N   0  0  0  0  0  0  0  0  0  0  0  0
   26.5104   27.1328   30.4966 C   0  0  0  0  0  0  0  0  0  0  0  0
   26.7350   27.2738   28.9853 C   0  0  0  0  0  0  0  0  0  0  0  0
   26.9306   25.9651   28.3401 N   0  0  0  0  0  0  0  0  0  0  0  0
   27.3962   25.9106   26.9784 C   0  0  0  0  0  0  0  0  0  0  0  0
   26.7569   26.6619   25.9777 C   0  0  0  0  0  0  0  0  0  0  0  0
   27.2193   26.6214   24.6544 C   0  0  0  0  0  0  0  0  0  0  0  0
   26.5826   27.3602   23.6592 O   0  0  0  0  0  0  0  0  0  0  0  0
   28.3284   25.8328   24.3285 C   0  0  0  0  0  0  0  0  0  0  0  0
   28.7805   25.7915   23.0501 F   0  0  0  0  0  0  0  0  0  0  0  0
   28.9747   25.0888   25.3202 C   0  0  0  0  0  0  0  0  0  0  0  0
   30.0551   24.3320   25.0055 F   0  0  0  0  0  0  0  0  0  0  0  0
   28.5133   25.1281   26.6391 C   0  0  0  0  0  0  0  0  0  0  0  0
   26.7557   24.7338   29.1221 C   0  0  0  0  0  0  0  0  0  0  0  0
   27.5909   24.8190   30.4012 C   0  0  0  0  0  0  0  0  0  0  0  0
  1  2  1  0
  2  3  2  0
  2  4  1  0
  4  5  2  0
  5  6  1  0
  6  7  2  0
  7  8  1  0
  8  9  2  0
  9 10  1  0
 10 11  2  0
 11 12  1  0
 12 13  2  0
 13 14  1  0
 14 15  1  0
 15 16  1  0
 16 17  1  0
 17 18  1  0
 18 19  2  0
 19 20  1  0
 20 21  1  0
 20 22  2  0
 22 23  1  0
 22 24  1  0
 24 25  1  0
 24 26  2  0
 17 27  1  0
 27 28  1  0
 13  4  1  0
 28 14  1  0
 12  7  1  0
 26 18  1  0
M  END
>  <AAScore>  (1) 
2.1367306610737744

>  <RootName>  (1) 
./4ZLY/04_DeltaGEst/trajectory_03/rank_01/lead_0081

$$$$
