confid_17
     RDKit          3D

 27 30  0  0  0  0  0  0  0  0999 V2000
   24.6900   26.1200   35.5300 N   0  0  0  0  0  0  0  0  0  0  0  0
   25.6600   25.6700   34.6600 C   0  0  0  0  0  0  0  0  0  0  0  0
   25.2400   25.0100   33.7200 O   0  0  0  0  0  0  0  0  0  0  0  0
   27.0300   26.2200   34.8800 C   0  0  0  0  0  0  0  0  0  0  0  0
   27.3500   26.7300   36.0700 N   0  0  0  0  0  0  0  0  0  0  0  0
   28.5700   27.1800   36.3300 N   0  0  0  0  0  0  0  0  0  0  0  0
   29.5300   27.1100   35.3900 C   0  0  0  0  0  0  0  0  0  0  0  0
   30.8300   27.5700   35.6500 C   0  0  0  0  0  0  0  0  0  0  0  0
   31.8500   27.5400   34.6900 C   0  0  0  0  0  0  0  0  0  0  0  0
   31.5100   27.1200   33.4000 C   0  0  0  0  0  0  0  0  0  0  0  0
   30.2200   26.6300   33.1100 C   0  0  0  0  0  0  0  0  0  0  0  0
   29.2400   26.6600   34.1000 C   0  0  0  0  0  0  0  0  0  0  0  0
   27.9300   26.2600   33.8100 C   0  0  0  0  0  0  0  0  0  0  0  0
   27.5200   25.7100   32.6100 N   0  0  0  0  0  0  0  0  0  0  0  0
   31.1413   28.0554   36.9635 N   0  0  0  0  0  0  0  0  0  0  0  0
   31.9917   27.2262   37.8290 C   0  0  0  0  0  0  0  0  0  0  0  0
   31.9979   27.6898   39.2865 C   0  0  0  0  0  0  0  0  0  0  0  0
   30.5983   27.7653   39.8368 C   0  0  0  0  0  0  0  0  0  0  0  0
   30.1392   26.8183   40.7733 C   0  0  0  0  0  0  0  0  0  0  0  0
   28.8614   26.9412   41.3268 C   0  0  0  0  0  0  0  0  0  0  0  0
   28.0357   28.0043   40.9589 C   0  0  0  0  0  0  0  0  0  0  0  0
   28.4747   28.9363   40.0178 C   0  0  0  0  0  0  0  0  0  0  0  0
   29.7395   28.8097   39.4312 C   0  0  0  0  0  0  0  0  0  0  0  0
   30.1181   29.7418   38.4588 O   0  0  0  0  0  0  0  0  0  0  0  0
   30.8091   29.4175   37.2852 C   0  0  0  0  0  0  0  0  0  0  0  0
   31.0704   30.3332   36.4606 O   0  0  0  0  0  0  0  0  0  0  0  0
   30.9265   25.7819   41.1582 F   0  0  0  0  0  0  0  0  0  0  0  0
  1  2  1  0
  2  3  2  0
  2  4  1  0
  4  5  2  0
  5  6  1  0
  6  7  2  0
  7  8  1  0
  8  9  2  0
  9 10  1  0
 10 11  2  0
 11 12  1  0
 12 13  2  0
 13 14  1  0
  8 15  1  0
 15 16  1  0
 16 17  1  0
 17 18  1  0
 18 19  2  0
 19 20  1  0
 20 21  2  0
 21 22  1  0
 22 23  2  0
 23 24  1  0
 24 25  1  0
 25 26  2  0
 19 27  1  0
 13  4  1  0
 25 15  1  0
 12  7  1  0
 23 18  1  0
M  END
>  <AAScore>  (1) 
2.940671792298743

>  <RootName>  (1) 
./4ZLY/04_DeltaGEst/trajectory_02/rank_01/lead_0114

$$$$
