confid_18
     RDKit          3D

 30 33  0  0  0  0  0  0  0  0999 V2000
   24.2000   26.2400   35.6900 N   0  0  0  0  0  0  0  0  0  0  0  0
   24.8500   26.2800   34.4800 C   0  0  0  0  0  0  0  0  0  0  0  0
   24.3100   25.7400   33.5400 O   0  0  0  0  0  0  0  0  0  0  0  0
   26.1800   26.9700   34.4700 C   0  0  0  0  0  0  0  0  0  0  0  0
   26.6500   27.6000   35.5500 N   0  0  0  0  0  0  0  0  0  0  0  0
   27.7900   28.2700   35.6200 N   0  0  0  0  0  0  0  0  0  0  0  0
   28.5400   28.3000   34.5100 C   0  0  0  0  0  0  0  0  0  0  0  0
   29.7700   28.9400   34.5600 C   0  0  0  0  0  0  0  0  0  0  0  0
   30.7000   28.8900   33.5000 C   0  0  0  0  0  0  0  0  0  0  0  0
   30.3700   28.1400   32.3700 C   0  0  0  0  0  0  0  0  0  0  0  0
   29.1200   27.5200   32.2800 C   0  0  0  0  0  0  0  0  0  0  0  0
   28.2100   27.6100   33.3300 C   0  0  0  0  0  0  0  0  0  0  0  0
   26.9700   26.9700   33.3100 C   0  0  0  0  0  0  0  0  0  0  0  0
   26.5300   26.2400   32.2200 N   0  0  0  0  0  0  0  0  0  0  0  0
   30.1421   29.6615   35.7412 N   0  0  0  0  0  0  0  0  0  0  0  0
   30.7097   29.0201   36.9103 C   0  0  0  0  0  0  0  0  0  0  0  0
   30.9690   30.1519   37.8945 C   0  0  0  0  0  0  0  0  0  0  0  0
   31.0508   31.4417   37.0433 C   0  0  0  0  0  0  0  0  0  0  0  0
   30.1985   31.1102   35.7961 C   0  0  0  0  0  0  0  0  0  0  0  0
   32.5333   31.7154   36.6584 C   0  0  0  0  0  0  0  0  0  0  0  0
   32.7291   33.0582   35.9383 C   0  0  0  0  0  0  0  0  0  0  0  0
   32.0477   34.1349   36.6606 N   0  0  0  0  0  0  0  0  0  0  0  0
   30.6508   33.9592   37.0615 C   0  0  0  0  0  0  0  0  0  0  0  0
   30.4870   32.6485   37.8343 C   0  0  0  0  0  0  0  0  0  0  0  0
   32.6505   35.4340   36.7480 C   0  0  0  0  0  0  0  0  0  0  0  0
   33.2411   35.7509   37.8165 O   0  0  0  0  0  0  0  0  0  0  0  0
   32.6541   36.3954   35.5647 C   0  0  0  0  0  0  0  0  0  0  0  0
   33.9179   36.1539   34.7204 C   0  0  0  0  0  0  0  0  0  0  0  0
   31.4041   36.1916   34.6839 C   0  0  0  0  0  0  0  0  0  0  0  0
   32.6568   37.8534   36.0724 C   0  0  0  0  0  0  0  0  0  0  0  0
  1  2  1  0
  2  3  2  0
  2  4  1  0
  4  5  2  0
  5  6  1  0
  6  7  2  0
  7  8  1  0
  8  9  2  0
  9 10  1  0
 10 11  2  0
 11 12  1  0
 12 13  2  0
 13 14  1  0
  8 15  1  0
 15 16  1  0
 16 17  1  0
 17 18  1  0
 18 19  1  0
 18 20  1  0
 20 21  1  0
 21 22  1  0
 22 23  1  0
 23 24  1  0
 22 25  1  0
 25 26  2  0
 25 27  1  0
 27 28  1  0
 27 29  1  0
 27 30  1  0
 13  4  1  0
 19 15  1  0
 12  7  1  0
 24 18  1  0
M  END
>  <AAScore>  (1) 
-8.585396977440524

>  <RootName>  (1) 
./4ZLY/04_DeltaGEst/trajectory_04/rank_01/lead_0059

$$$$
