confid_7
     RDKit          3D

 27 30  0  0  0  0  0  0  0  0999 V2000
   24.5500   26.3900   36.2500 N   0  0  0  0  0  0  0  0  0  0  0  0
   25.6000   26.1300   35.4000 C   0  0  0  0  0  0  0  0  0  0  0  0
   25.4300   25.4300   34.4200 O   0  0  0  0  0  0  0  0  0  0  0  0
   26.9800   26.6300   35.7100 C   0  0  0  0  0  0  0  0  0  0  0  0
   27.3200   26.8200   36.9800 N   0  0  0  0  0  0  0  0  0  0  0  0
   28.4700   27.4000   37.3100 N   0  0  0  0  0  0  0  0  0  0  0  0
   29.4000   27.6300   36.3700 C   0  0  0  0  0  0  0  0  0  0  0  0
   30.6600   28.0500   36.8000 C   0  0  0  0  0  0  0  0  0  0  0  0
   31.5700   28.3600   35.7800 C   0  0  0  0  0  0  0  0  0  0  0  0
   31.3700   28.1000   34.4300 C   0  0  0  0  0  0  0  0  0  0  0  0
   30.1200   27.5900   34.0500 C   0  0  0  0  0  0  0  0  0  0  0  0
   29.1500   27.3400   35.0300 C   0  0  0  0  0  0  0  0  0  0  0  0
   27.8800   26.8900   34.6600 C   0  0  0  0  0  0  0  0  0  0  0  0
   27.4800   26.6100   33.3700 N   0  0  0  0  0  0  0  0  0  0  0  0
   23.1632   26.2126   35.9130 C   0  0  0  0  0  0  0  0  0  0  0  0
   22.2797   25.9061   36.9013 N   0  0  0  0  0  0  0  0  0  0  0  0
   20.9507   25.7536   36.6641 C   0  0  0  0  0  0  0  0  0  0  0  0
   20.4437   25.9095   35.3680 C   0  0  0  0  0  0  0  0  0  0  0  0
   18.9652   25.7936   35.1035 C   0  0  0  0  0  0  0  0  0  0  0  0
   18.7117   25.2917   33.7463 N   0  0  0  0  0  0  0  0  0  0  0  0
   17.5229   24.4701   33.4854 C   0  0  0  0  0  0  0  0  0  0  0  0
   17.9206   23.0151   33.2636 C   0  0  0  0  0  0  0  0  0  0  0  0
   19.5676   25.7077   32.6628 C   0  0  0  0  0  0  0  0  0  0  0  0
   19.2725   25.4255   31.4698 O   0  0  0  0  0  0  0  0  0  0  0  0
   20.8006   26.5179   32.9401 C   0  0  0  0  0  0  0  0  0  0  0  0
   21.3252   26.2523   34.3272 C   0  0  0  0  0  0  0  0  0  0  0  0
   22.6882   26.4201   34.6064 C   0  0  0  0  0  0  0  0  0  0  0  0
  1  2  1  0
  2  3  2  0
  2  4  1  0
  4  5  2  0
  5  6  1  0
  6  7  2  0
  7  8  1  0
  8  9  2  0
  9 10  1  0
 10 11  2  0
 11 12  1  0
 12 13  2  0
 13 14  1  0
  1 15  1  0
 15 16  2  0
 16 17  1  0
 17 18  2  0
 18 19  1  0
 19 20  1  0
 20 21  1  0
 21 22  1  0
 20 23  1  0
 23 24  2  0
 23 25  1  0
 25 26  1  0
 26 27  2  0
 13  4  1  0
 27 15  1  0
 12  7  1  0
 26 18  1  0
M  END
>  <AAScore>  (1) 
906.507397827364

>  <RootName>  (1) 
./4ZLY/04_DeltaGEst/trajectory_01/rank_00/lead_0440

$$$$
