confid_11
     RDKit          3D

 28 31  0  0  0  0  0  0  0  0999 V2000
   24.2000   26.2400   35.6900 N   0  0  0  0  0  0  0  0  0  0  0  0
   24.8500   26.2800   34.4800 C   0  0  0  0  0  0  0  0  0  0  0  0
   24.3100   25.7400   33.5400 O   0  0  0  0  0  0  0  0  0  0  0  0
   26.1800   26.9700   34.4700 C   0  0  0  0  0  0  0  0  0  0  0  0
   26.6500   27.6000   35.5500 N   0  0  0  0  0  0  0  0  0  0  0  0
   27.7900   28.2700   35.6200 N   0  0  0  0  0  0  0  0  0  0  0  0
   28.5400   28.3000   34.5100 C   0  0  0  0  0  0  0  0  0  0  0  0
   29.7700   28.9400   34.5600 C   0  0  0  0  0  0  0  0  0  0  0  0
   30.7000   28.8900   33.5000 C   0  0  0  0  0  0  0  0  0  0  0  0
   30.3700   28.1400   32.3700 C   0  0  0  0  0  0  0  0  0  0  0  0
   29.1200   27.5200   32.2800 C   0  0  0  0  0  0  0  0  0  0  0  0
   28.2100   27.6100   33.3300 C   0  0  0  0  0  0  0  0  0  0  0  0
   26.9700   26.9700   33.3100 C   0  0  0  0  0  0  0  0  0  0  0  0
   26.5300   26.2400   32.2200 N   0  0  0  0  0  0  0  0  0  0  0  0
   22.8259   25.8482   35.8262 C   0  0  0  0  0  0  0  0  0  0  0  0
   22.4546   24.8175   36.6118 N   0  0  0  0  0  0  0  0  0  0  0  0
   21.1211   24.7438   36.4495 C   0  0  0  0  0  0  0  0  0  0  0  0
   20.7030   25.7230   35.5732 C   0  0  0  0  0  0  0  0  0  0  0  0
   19.2472   26.0011   35.2781 C   0  0  0  0  0  0  0  0  0  0  0  0
   19.0700   26.6964   33.9865 N   0  0  0  0  0  0  0  0  0  0  0  0
   19.0449   25.7265   32.8785 C   0  0  0  0  0  0  0  0  0  0  0  0
   17.8536   27.5416   33.9571 C   0  0  0  0  0  0  0  0  0  0  0  0
   18.0116   28.8504   34.7762 C   0  0  0  0  0  0  0  0  0  0  0  0
   18.8374   29.8640   34.2109 O   0  0  0  0  0  0  0  0  0  0  0  0
   20.0909   29.4059   33.7336 C   0  0  0  0  0  0  0  0  0  0  0  0
   21.0139   28.8123   34.8315 C   0  0  0  0  0  0  0  0  0  0  0  0
   21.8516   27.6241   34.3064 C   0  0  0  0  0  0  0  0  0  0  0  0
   21.7855   26.4549   35.2013 N   0  0  0  0  0  0  0  0  0  0  0  0
  1  2  1  0
  2  3  2  0
  2  4  1  0
  4  5  2  0
  5  6  1  0
  6  7  2  0
  7  8  1  0
  8  9  2  0
  9 10  1  0
 10 11  2  0
 11 12  1  0
 12 13  2  0
 13 14  1  0
  1 15  1  0
 15 16  2  0
 16 17  1  0
 17 18  2  0
 18 19  1  0
 19 20  1  0
 20 21  1  0
 20 22  1  0
 22 23  1  0
 23 24  1  0
 24 25  1  0
 25 26  1  0
 26 27  1  0
 27 28  1  0
 13  4  1  0
 28 15  1  0
 12  7  1  0
 28 18  1  0
M  END
>  <AAScore>  (1) 
252.61256050260104

>  <RootName>  (1) 
./4ZLY/04_DeltaGEst/trajectory_04/rank_00/lead_0061

$$$$
