confid_7
     RDKit          3D

 29 32  0  0  0  0  0  0  0  0999 V2000
   24.4800   26.1000   36.1300 N   0  0  0  0  0  0  0  0  0  0  0  0
   25.2500   26.2500   34.9900 C   0  0  0  0  0  0  0  0  0  0  0  0
   24.7400   25.7600   33.9900 O   0  0  0  0  0  0  0  0  0  0  0  0
   26.5900   26.8900   34.9600 C   0  0  0  0  0  0  0  0  0  0  0  0
   27.0600   27.2400   36.1600 N   0  0  0  0  0  0  0  0  0  0  0  0
   28.3000   27.7100   36.2400 N   0  0  0  0  0  0  0  0  0  0  0  0
   29.0500   27.9600   35.1500 C   0  0  0  0  0  0  0  0  0  0  0  0
   30.3400   28.4900   35.2600 C   0  0  0  0  0  0  0  0  0  0  0  0
   31.1100   28.8200   34.1400 C   0  0  0  0  0  0  0  0  0  0  0  0
   30.5200   28.6700   32.8800 C   0  0  0  0  0  0  0  0  0  0  0  0
   29.2900   28.0200   32.7700 C   0  0  0  0  0  0  0  0  0  0  0  0
   28.5200   27.7100   33.8900 C   0  0  0  0  0  0  0  0  0  0  0  0
   27.2700   27.0800   33.7600 C   0  0  0  0  0  0  0  0  0  0  0  0
   26.7500   26.8800   32.4900 N   0  0  0  0  0  0  0  0  0  0  0  0
   23.5140   25.0512   36.3442 C   0  0  0  0  0  0  0  0  0  0  0  0
   23.7191   23.7567   35.8343 C   0  0  0  0  0  0  0  0  0  0  0  0
   22.7838   22.7377   36.0524 C   0  0  0  0  0  0  0  0  0  0  0  0
   23.0244   21.4945   35.4389 O   0  0  0  0  0  0  0  0  0  0  0  0
   22.0516   20.4812   35.1661 C   0  0  0  0  0  0  0  0  0  0  0  0
   20.9588   20.9908   34.2049 C   0  0  0  0  0  0  0  0  0  0  0  0
   19.6032   20.7984   34.7856 N   0  0  0  0  0  0  0  0  0  0  0  0
   18.6695   20.2965   33.7625 C   0  0  0  0  0  0  0  0  0  0  0  0
   19.0659   22.0333   35.4147 C   0  0  0  0  0  0  0  0  0  0  0  0
   19.3566   22.0491   36.9168 C   0  0  0  0  0  0  0  0  0  0  0  0
   20.7562   21.9758   37.1623 O   0  0  0  0  0  0  0  0  0  0  0  0
   21.6488   23.0023   36.8488 C   0  0  0  0  0  0  0  0  0  0  0  0
   21.4472   24.2908   37.3649 C   0  0  0  0  0  0  0  0  0  0  0  0
   22.3736   25.3059   37.1195 C   0  0  0  0  0  0  0  0  0  0  0  0
   22.1590   26.5409   37.6391 F   0  0  0  0  0  0  0  0  0  0  0  0
  1  2  1  0
  2  3  2  0
  2  4  1  0
  4  5  2  0
  5  6  1  0
  6  7  2  0
  7  8  1  0
  8  9  2  0
  9 10  1  0
 10 11  2  0
 11 12  1  0
 12 13  2  0
 13 14  1  0
  1 15  1  0
 15 16  2  0
 16 17  1  0
 17 18  1  0
 18 19  1  0
 19 20  1  0
 20 21  1  0
 21 22  1  0
 21 23  1  0
 23 24  1  0
 24 25  1  0
 25 26  1  0
 26 27  1  0
 27 28  2  0
 28 29  1  0
 13  4  1  0
 28 15  1  0
 12  7  1  0
 26 17  2  0
M  END
>  <AAScore>  (1) 
898.5948552293577

>  <RootName>  (1) 
./4ZLY/04_DeltaGEst/trajectory_00/rank_00/lead_0021

$$$$
