confid_17
     RDKit          3D

 28 31  0  0  0  0  0  0  0  0999 V2000
   24.4800   26.1000   36.1300 N   0  0  0  0  0  0  0  0  0  0  0  0
   25.2500   26.2500   34.9900 C   0  0  0  0  0  0  0  0  0  0  0  0
   24.7400   25.7600   33.9900 O   0  0  0  0  0  0  0  0  0  0  0  0
   26.5900   26.8900   34.9600 C   0  0  0  0  0  0  0  0  0  0  0  0
   27.0600   27.2400   36.1600 N   0  0  0  0  0  0  0  0  0  0  0  0
   28.3000   27.7100   36.2400 N   0  0  0  0  0  0  0  0  0  0  0  0
   29.0500   27.9600   35.1500 C   0  0  0  0  0  0  0  0  0  0  0  0
   30.3400   28.4900   35.2600 C   0  0  0  0  0  0  0  0  0  0  0  0
   31.1100   28.8200   34.1400 C   0  0  0  0  0  0  0  0  0  0  0  0
   30.5200   28.6700   32.8800 C   0  0  0  0  0  0  0  0  0  0  0  0
   29.2900   28.0200   32.7700 C   0  0  0  0  0  0  0  0  0  0  0  0
   28.5200   27.7100   33.8900 C   0  0  0  0  0  0  0  0  0  0  0  0
   27.2700   27.0800   33.7600 C   0  0  0  0  0  0  0  0  0  0  0  0
   26.7500   26.8800   32.4900 N   0  0  0  0  0  0  0  0  0  0  0  0
   23.4027   25.1536   36.2831 C   0  0  0  0  0  0  0  0  0  0  0  0
   23.3848   24.0144   35.5377 N   0  0  0  0  0  0  0  0  0  0  0  0
   22.4254   23.0662   35.6839 C   0  0  0  0  0  0  0  0  0  0  0  0
   21.4092   23.2304   36.6315 C   0  0  0  0  0  0  0  0  0  0  0  0
   20.3864   22.1371   36.8305 C   0  0  0  0  0  0  0  0  0  0  0  0
   19.1386   22.6359   37.4425 N   0  0  0  0  0  0  0  0  0  0  0  0
   19.4407   23.3710   38.6902 C   0  0  0  0  0  0  0  0  0  0  0  0
   20.3123   24.6154   38.4534 C   0  0  0  0  0  0  0  0  0  0  0  0
   21.4134   24.3780   37.4473 C   0  0  0  0  0  0  0  0  0  0  0  0
   22.4007   25.3610   37.2513 C   0  0  0  0  0  0  0  0  0  0  0  0
   22.3738   26.5303   38.0176 O   0  0  0  0  0  0  0  0  0  0  0  0
   22.0000   27.7837   37.4575 C   0  0  0  0  0  0  0  0  0  0  0  0
   18.3188   23.3994   36.4725 C   0  0  0  0  0  0  0  0  0  0  0  0
   16.8900   23.5986   36.9757 C   0  0  0  0  0  0  0  0  0  0  0  0
  1  2  1  0
  2  3  2  0
  2  4  1  0
  4  5  2  0
  5  6  1  0
  6  7  2  0
  7  8  1  0
  8  9  2  0
  9 10  1  0
 10 11  2  0
 11 12  1  0
 12 13  2  0
 13 14  1  0
  1 15  1  0
 15 16  2  0
 16 17  1  0
 17 18  2  0
 18 19  1  0
 19 20  1  0
 20 21  1  0
 21 22  1  0
 22 23  1  0
 23 24  2  0
 24 25  1  0
 25 26  1  0
 20 27  1  0
 27 28  1  0
 13  4  1  0
 24 15  1  0
 12  7  1  0
 23 18  1  0
M  END
>  <AAScore>  (1) 
801.5014753822679

>  <RootName>  (1) 
./4ZLY/04_DeltaGEst/trajectory_00/rank_00/lead_0105

$$$$
