confid_8
     RDKit          3D

 27 30  0  0  0  0  0  0  0  0999 V2000
   24.2000   26.2400   35.6900 N   0  0  0  0  0  0  0  0  0  0  0  0
   24.8500   26.2800   34.4800 C   0  0  0  0  0  0  0  0  0  0  0  0
   24.3100   25.7400   33.5400 O   0  0  0  0  0  0  0  0  0  0  0  0
   26.1800   26.9700   34.4700 C   0  0  0  0  0  0  0  0  0  0  0  0
   26.6500   27.6000   35.5500 N   0  0  0  0  0  0  0  0  0  0  0  0
   27.7900   28.2700   35.6200 N   0  0  0  0  0  0  0  0  0  0  0  0
   28.5400   28.3000   34.5100 C   0  0  0  0  0  0  0  0  0  0  0  0
   29.7700   28.9400   34.5600 C   0  0  0  0  0  0  0  0  0  0  0  0
   30.7000   28.8900   33.5000 C   0  0  0  0  0  0  0  0  0  0  0  0
   30.3700   28.1400   32.3700 C   0  0  0  0  0  0  0  0  0  0  0  0
   29.1200   27.5200   32.2800 C   0  0  0  0  0  0  0  0  0  0  0  0
   28.2100   27.6100   33.3300 C   0  0  0  0  0  0  0  0  0  0  0  0
   26.9700   26.9700   33.3100 C   0  0  0  0  0  0  0  0  0  0  0  0
   26.5300   26.2400   32.2200 N   0  0  0  0  0  0  0  0  0  0  0  0
   30.1421   29.6667   35.7437 N   0  0  0  0  0  0  0  0  0  0  0  0
   30.8164   28.9416   36.8273 C   0  0  0  0  0  0  0  0  0  0  0  0
   30.9355   29.8027   38.0892 C   0  0  0  0  0  0  0  0  0  0  0  0
   29.6325   30.5757   38.3140 C   0  0  0  0  0  0  0  0  0  0  0  0
   29.3963   31.5554   37.2321 N   0  0  0  0  0  0  0  0  0  0  0  0
   29.8353   31.1019   35.8912 C   0  0  0  0  0  0  0  0  0  0  0  0
   29.7232   32.0156   34.6633 C   0  0  0  0  0  0  0  0  0  0  0  0
   31.0249   31.9466   35.4293 C   0  0  0  0  0  0  0  0  0  0  0  0
   28.0674   32.2094   37.3041 C   0  0  0  0  0  0  0  0  0  0  0  0
   26.8849   31.3974   36.7391 C   0  0  0  0  0  0  0  0  0  0  0  0
   26.6940   30.2293   37.4497 F   0  0  0  0  0  0  0  0  0  0  0  0
   27.0679   31.1001   35.4026 F   0  0  0  0  0  0  0  0  0  0  0  0
   25.7358   32.1582   36.8532 F   0  0  0  0  0  0  0  0  0  0  0  0
  1  2  1  0
  2  3  2  0
  2  4  1  0
  4  5  2  0
  5  6  1  0
  6  7  2  0
  7  8  1  0
  8  9  2  0
  9 10  1  0
 10 11  2  0
 11 12  1  0
 12 13  2  0
 13 14  1  0
  8 15  1  0
 15 16  1  0
 16 17  1  0
 17 18  1  0
 18 19  1  0
 19 20  1  0
 20 21  1  0
 21 22  1  0
 19 23  1  0
 23 24  1  0
 24 25  1  0
 24 26  1  0
 24 27  1  0
 13  4  1  0
 20 15  1  0
 12  7  1  0
 22 20  1  0
M  END
>  <AAScore>  (1) 
-7.458066184286775

>  <RootName>  (1) 
./4ZLY/04_DeltaGEst/trajectory_04/rank_01/lead_0490

$$$$
