confid_12
     RDKit          3D

 29 32  0  0  0  0  0  0  0  0999 V2000
   24.6900   26.1200   35.5300 N   0  0  0  0  0  0  0  0  0  0  0  0
   25.6600   25.6700   34.6600 C   0  0  0  0  0  0  0  0  0  0  0  0
   25.2400   25.0100   33.7200 O   0  0  0  0  0  0  0  0  0  0  0  0
   27.0300   26.2200   34.8800 C   0  0  0  0  0  0  0  0  0  0  0  0
   27.3500   26.7300   36.0700 N   0  0  0  0  0  0  0  0  0  0  0  0
   28.5700   27.1800   36.3300 N   0  0  0  0  0  0  0  0  0  0  0  0
   29.5300   27.1100   35.3900 C   0  0  0  0  0  0  0  0  0  0  0  0
   30.8300   27.5700   35.6500 C   0  0  0  0  0  0  0  0  0  0  0  0
   31.8500   27.5400   34.6900 C   0  0  0  0  0  0  0  0  0  0  0  0
   31.5100   27.1200   33.4000 C   0  0  0  0  0  0  0  0  0  0  0  0
   30.2200   26.6300   33.1100 C   0  0  0  0  0  0  0  0  0  0  0  0
   29.2400   26.6600   34.1000 C   0  0  0  0  0  0  0  0  0  0  0  0
   27.9300   26.2600   33.8100 C   0  0  0  0  0  0  0  0  0  0  0  0
   27.5200   25.7100   32.6100 N   0  0  0  0  0  0  0  0  0  0  0  0
   23.2924   26.2220   35.2028 C   0  0  0  0  0  0  0  0  0  0  0  0
   22.4043   25.8786   36.1039 N   0  0  0  0  0  0  0  0  0  0  0  0
   20.9762   25.9373   35.8905 C   0  0  0  0  0  0  0  0  0  0  0  0
   20.5044   26.3612   34.7176 C   0  0  0  0  0  0  0  0  0  0  0  0
   19.0956   26.4857   34.2607 C   0  0  0  0  0  0  0  0  0  0  0  0
   19.2639   27.0387   32.9146 N   0  0  0  0  0  0  0  0  0  0  0  0
   18.1486   27.3293   32.0123 C   0  0  0  0  0  0  0  0  0  0  0  0
   17.9550   28.8478   31.8241 C   0  0  0  0  0  0  0  0  0  0  0  0
   17.5990   29.5363   33.1493 C   0  0  0  0  0  0  0  0  0  0  0  0
   16.8632   29.1126   30.7812 C   0  0  0  0  0  0  0  0  0  0  0  0
   20.6652   27.1571   32.6154 C   0  0  0  0  0  0  0  0  0  0  0  0
   21.3887   26.7842   33.6627 C   0  0  0  0  0  0  0  0  0  0  0  0
   22.8395   26.7614   33.8883 C   0  0  0  0  0  0  0  0  0  0  0  0
   23.6511   27.2243   33.0431 O   0  0  0  0  0  0  0  0  0  0  0  0
   21.2262   27.6692   31.3197 C   0  0  0  0  0  0  0  0  0  0  0  0
  1  2  1  0
  2  3  2  0
  2  4  1  0
  4  5  2  0
  5  6  1  0
  6  7  2  0
  7  8  1  0
  8  9  2  0
  9 10  1  0
 10 11  2  0
 11 12  1  0
 12 13  2  0
 13 14  1  0
  1 15  1  0
 15 16  2  0
 16 17  1  0
 17 18  2  0
 18 19  1  0
 19 20  1  0
 20 21  1  0
 21 22  1  0
 22 23  1  0
 22 24  1  0
 20 25  1  0
 25 26  2  0
 26 27  1  0
 27 28  2  0
 25 29  1  0
 13  4  1  0
 27 15  1  0
 12  7  1  0
 26 18  1  0
M  END
>  <AAScore>  (1) 
493.6357442668254

>  <RootName>  (1) 
./4ZLY/04_DeltaGEst/trajectory_02/rank_00/lead_0033

$$$$
