confid_14
     RDKit          3D

 31 34  0  0  0  0  0  0  0  0999 V2000
   24.5500   26.3900   36.2500 N   0  0  0  0  0  0  0  0  0  0  0  0
   25.6000   26.1300   35.4000 C   0  0  0  0  0  0  0  0  0  0  0  0
   25.4300   25.4300   34.4200 O   0  0  0  0  0  0  0  0  0  0  0  0
   26.9800   26.6300   35.7100 C   0  0  0  0  0  0  0  0  0  0  0  0
   27.3200   26.8200   36.9800 N   0  0  0  0  0  0  0  0  0  0  0  0
   28.4700   27.4000   37.3100 N   0  0  0  0  0  0  0  0  0  0  0  0
   29.4000   27.6300   36.3700 C   0  0  0  0  0  0  0  0  0  0  0  0
   30.6600   28.0500   36.8000 C   0  0  0  0  0  0  0  0  0  0  0  0
   31.5700   28.3600   35.7800 C   0  0  0  0  0  0  0  0  0  0  0  0
   31.3700   28.1000   34.4300 C   0  0  0  0  0  0  0  0  0  0  0  0
   30.1200   27.5900   34.0500 C   0  0  0  0  0  0  0  0  0  0  0  0
   29.1500   27.3400   35.0300 C   0  0  0  0  0  0  0  0  0  0  0  0
   27.8800   26.8900   34.6600 C   0  0  0  0  0  0  0  0  0  0  0  0
   27.4800   26.6100   33.3700 N   0  0  0  0  0  0  0  0  0  0  0  0
   23.4231   25.5034   36.3307 C   0  0  0  0  0  0  0  0  0  0  0  0
   23.5518   24.4720   37.1344 N   0  0  0  0  0  0  0  0  0  0  0  0
   22.6884   23.3349   37.2937 C   0  0  0  0  0  0  0  0  0  0  0  0
   22.4064   22.5136   36.2706 C   0  0  0  0  0  0  0  0  0  0  0  0
   22.9824   22.7780   34.9271 C   0  0  0  0  0  0  0  0  0  0  0  0
   21.9589   23.5501   34.2413 N   0  0  0  0  0  0  0  0  0  0  0  0
   20.6125   22.9529   34.1213 C   0  0  0  0  0  0  0  0  0  0  0  0
   20.4507   21.6630   34.9813 C   0  0  0  0  0  0  0  0  0  0  0  0
   21.1805   21.7540   36.2687 N   0  0  0  0  0  0  0  0  0  0  0  0
   20.8205   20.9301   37.3986 C   0  0  0  0  0  0  0  0  0  0  0  0
   21.6978   20.6214   38.2489 O   0  0  0  0  0  0  0  0  0  0  0  0
   19.4374   20.3714   37.5557 C   0  0  0  0  0  0  0  0  0  0  0  0
   22.0877   24.9781   34.2023 C   0  0  0  0  0  0  0  0  0  0  0  0
   22.0406   25.5444   33.0737 O   0  0  0  0  0  0  0  0  0  0  0  0
   22.1619   25.8188   35.4900 C   0  0  0  0  0  0  0  0  0  0  0  0
   20.8661   25.6389   36.3161 C   0  0  0  0  0  0  0  0  0  0  0  0
   22.1942   27.3237   35.1056 C   0  0  0  0  0  0  0  0  0  0  0  0
  1  2  1  0
  2  3  2  0
  2  4  1  0
  4  5  2  0
  5  6  1  0
  6  7  2  0
  7  8  1  0
  8  9  2  0
  9 10  1  0
 10 11  2  0
 11 12  1  0
 12 13  2  0
 13 14  1  0
  1 15  1  0
 15 16  2  0
 16 17  1  0
 17 18  2  0
 18 19  1  0
 19 20  1  0
 20 21  1  0
 21 22  1  0
 22 23  1  0
 23 24  1  0
 24 25  2  0
 24 26  1  0
 20 27  1  0
 27 28  2  0
 27 29  1  0
 29 30  1  0
 29 31  1  0
 13  4  1  0
 29 15  1  0
 12  7  1  0
 23 18  1  0
M  END
>  <AAScore>  (1) 
5076.442650069942

>  <RootName>  (1) 
./4ZLY/04_DeltaGEst/trajectory_01/rank_00/lead_0409

$$$$
