confid_7
     RDKit          3D

 26 28  0  0  0  0  0  0  0  0999 V2000
   24.6900   26.1200   35.5300 N   0  0  0  0  0  0  0  0  0  0  0  0
   25.6600   25.6700   34.6600 C   0  0  0  0  0  0  0  0  0  0  0  0
   25.2400   25.0100   33.7200 O   0  0  0  0  0  0  0  0  0  0  0  0
   27.0300   26.2200   34.8800 C   0  0  0  0  0  0  0  0  0  0  0  0
   27.3500   26.7300   36.0700 N   0  0  0  0  0  0  0  0  0  0  0  0
   28.5700   27.1800   36.3300 N   0  0  0  0  0  0  0  0  0  0  0  0
   29.5300   27.1100   35.3900 C   0  0  0  0  0  0  0  0  0  0  0  0
   30.8300   27.5700   35.6500 C   0  0  0  0  0  0  0  0  0  0  0  0
   31.8500   27.5400   34.6900 C   0  0  0  0  0  0  0  0  0  0  0  0
   31.5100   27.1200   33.4000 C   0  0  0  0  0  0  0  0  0  0  0  0
   30.2200   26.6300   33.1100 C   0  0  0  0  0  0  0  0  0  0  0  0
   29.2400   26.6600   34.1000 C   0  0  0  0  0  0  0  0  0  0  0  0
   27.9300   26.2600   33.8100 C   0  0  0  0  0  0  0  0  0  0  0  0
   27.5200   25.7100   32.6100 N   0  0  0  0  0  0  0  0  0  0  0  0
   31.1464   28.0666   36.9597 N   0  0  0  0  0  0  0  0  0  0  0  0
   32.0348   27.2848   37.8300 C   0  0  0  0  0  0  0  0  0  0  0  0
   32.2448   27.9824   39.1766 C   0  0  0  0  0  0  0  0  0  0  0  0
   30.9547   28.4677   39.6920 N   0  0  0  0  0  0  0  0  0  0  0  0
   30.5386   28.2262   41.0521 C   0  0  0  0  0  0  0  0  0  0  0  0
   29.7706   29.0527   41.6183 O   0  0  0  0  0  0  0  0  0  0  0  0
   31.0187   27.0151   41.8147 C   0  0  0  0  0  0  0  0  0  0  0  0
   30.0522   26.6066   42.9393 C   0  0  0  0  0  0  0  0  0  0  0  0
   30.5508   25.3875   43.7312 C   0  0  0  0  0  0  0  0  0  0  0  0
   30.4444   24.0833   42.9406 C   0  0  0  0  0  0  0  0  0  0  0  0
   30.0835   29.2733   38.8202 C   0  0  0  0  0  0  0  0  0  0  0  0
   30.6362   29.3725   37.3926 C   0  0  0  0  0  0  0  0  0  0  0  0
  1  2  1  0
  2  3  2  0
  2  4  1  0
  4  5  2  0
  5  6  1  0
  6  7  2  0
  7  8  1  0
  8  9  2  0
  9 10  1  0
 10 11  2  0
 11 12  1  0
 12 13  2  0
 13 14  1  0
  8 15  1  0
 15 16  1  0
 16 17  1  0
 17 18  1  0
 18 19  1  0
 19 20  2  0
 19 21  1  0
 21 22  1  0
 22 23  1  0
 23 24  1  0
 18 25  1  0
 25 26  1  0
 13  4  1  0
 26 15  1  0
 12  7  1  0
M  END
>  <AAScore>  (1) 
37.950365902187855

>  <RootName>  (1) 
./4ZLY/04_DeltaGEst/trajectory_02/rank_01/lead_0412

$$$$
