confid_12
     RDKit          3D

 28 31  0  0  0  0  0  0  0  0999 V2000
   24.4800   26.1000   36.1300 N   0  0  0  0  0  0  0  0  0  0  0  0
   25.2500   26.2500   34.9900 C   0  0  0  0  0  0  0  0  0  0  0  0
   24.7400   25.7600   33.9900 O   0  0  0  0  0  0  0  0  0  0  0  0
   26.5900   26.8900   34.9600 C   0  0  0  0  0  0  0  0  0  0  0  0
   27.0600   27.2400   36.1600 N   0  0  0  0  0  0  0  0  0  0  0  0
   28.3000   27.7100   36.2400 N   0  0  0  0  0  0  0  0  0  0  0  0
   29.0500   27.9600   35.1500 C   0  0  0  0  0  0  0  0  0  0  0  0
   30.3400   28.4900   35.2600 C   0  0  0  0  0  0  0  0  0  0  0  0
   31.1100   28.8200   34.1400 C   0  0  0  0  0  0  0  0  0  0  0  0
   30.5200   28.6700   32.8800 C   0  0  0  0  0  0  0  0  0  0  0  0
   29.2900   28.0200   32.7700 C   0  0  0  0  0  0  0  0  0  0  0  0
   28.5200   27.7100   33.8900 C   0  0  0  0  0  0  0  0  0  0  0  0
   27.2700   27.0800   33.7600 C   0  0  0  0  0  0  0  0  0  0  0  0
   26.7500   26.8800   32.4900 N   0  0  0  0  0  0  0  0  0  0  0  0
   23.4004   25.1511   36.3090 C   0  0  0  0  0  0  0  0  0  0  0  0
   23.2199   24.1444   35.4022 N   0  0  0  0  0  0  0  0  0  0  0  0
   22.2220   23.2422   35.5568 C   0  0  0  0  0  0  0  0  0  0  0  0
   21.9004   22.1263   34.6492 C   0  0  0  0  0  0  0  0  0  0  0  0
   20.6451   21.5466   35.1828 N   0  0  0  0  0  0  0  0  0  0  0  0
   20.3975   22.1702   36.5061 C   0  0  0  0  0  0  0  0  0  0  0  0
   21.3739   23.2828   36.6135 C   0  0  0  0  0  0  0  0  0  0  0  0
   21.5040   24.2682   37.6025 C   0  0  0  0  0  0  0  0  0  0  0  0
   20.5352   24.3151   38.7651 C   0  0  0  0  0  0  0  0  0  0  0  0
   19.3614   25.2395   38.4574 C   0  0  0  0  0  0  0  0  0  0  0  0
   22.5342   25.2341   37.4380 C   0  0  0  0  0  0  0  0  0  0  0  0
   22.6877   26.3037   38.4012 C   0  0  0  0  0  0  0  0  0  0  0  0
   22.8073   27.1580   39.1728 N   0  0  0  0  0  0  0  0  0  0  0  0
   20.7174   20.0814   35.2739 C   0  0  0  0  0  0  0  0  0  0  0  0
  1  2  1  0
  2  3  2  0
  2  4  1  0
  4  5  2  0
  5  6  1  0
  6  7  2  0
  7  8  1  0
  8  9  2  0
  9 10  1  0
 10 11  2  0
 11 12  1  0
 12 13  2  0
 13 14  1  0
  1 15  1  0
 15 16  2  0
 16 17  1  0
 17 18  1  0
 18 19  1  0
 19 20  1  0
 20 21  1  0
 21 22  1  0
 22 23  1  0
 23 24  1  0
 22 25  2  0
 25 26  1  0
 26 27  3  0
 19 28  1  0
 13  4  1  0
 25 15  1  0
 12  7  1  0
 21 17  2  0
M  END
>  <AAScore>  (1) 
522.4482747533939

>  <RootName>  (1) 
./4ZLY/04_DeltaGEst/trajectory_00/rank_01/lead_0039

$$$$
