confid_17
     RDKit          3D

 27 30  0  0  0  0  0  0  0  0999 V2000
   24.6900   26.1200   35.5300 N   0  0  0  0  0  0  0  0  0  0  0  0
   25.6600   25.6700   34.6600 C   0  0  0  0  0  0  0  0  0  0  0  0
   25.2400   25.0100   33.7200 O   0  0  0  0  0  0  0  0  0  0  0  0
   27.0300   26.2200   34.8800 C   0  0  0  0  0  0  0  0  0  0  0  0
   27.3500   26.7300   36.0700 N   0  0  0  0  0  0  0  0  0  0  0  0
   28.5700   27.1800   36.3300 N   0  0  0  0  0  0  0  0  0  0  0  0
   29.5300   27.1100   35.3900 C   0  0  0  0  0  0  0  0  0  0  0  0
   30.8300   27.5700   35.6500 C   0  0  0  0  0  0  0  0  0  0  0  0
   31.8500   27.5400   34.6900 C   0  0  0  0  0  0  0  0  0  0  0  0
   31.5100   27.1200   33.4000 C   0  0  0  0  0  0  0  0  0  0  0  0
   30.2200   26.6300   33.1100 C   0  0  0  0  0  0  0  0  0  0  0  0
   29.2400   26.6600   34.1000 C   0  0  0  0  0  0  0  0  0  0  0  0
   27.9300   26.2600   33.8100 C   0  0  0  0  0  0  0  0  0  0  0  0
   27.5200   25.7100   32.6100 N   0  0  0  0  0  0  0  0  0  0  0  0
   31.1838   28.0721   37.0017 C   0  0  0  0  0  0  0  0  0  0  0  0
   30.9861   27.2708   38.1352 C   0  0  0  0  0  0  0  0  0  0  0  0
   31.3318   27.7262   39.4218 C   0  0  0  0  0  0  0  0  0  0  0  0
   31.0874   26.7826   40.5928 C   0  0  0  0  0  0  0  0  0  0  0  0
   32.1925   26.7339   41.5732 N   0  0  0  0  0  0  0  0  0  0  0  0
   33.5189   26.5059   40.9752 C   0  0  0  0  0  0  0  0  0  0  0  0
   32.1786   27.7880   42.6136 C   0  0  0  0  0  0  0  0  0  0  0  0
   31.6021   29.1358   42.1560 C   0  0  0  0  0  0  0  0  0  0  0  0
   32.2373   29.6087   40.8881 C   0  0  0  0  0  0  0  0  0  0  0  0
   33.1099   30.5173   40.9530 O   0  0  0  0  0  0  0  0  0  0  0  0
   31.8644   29.0370   39.5696 C   0  0  0  0  0  0  0  0  0  0  0  0
   32.0770   29.8211   38.4206 C   0  0  0  0  0  0  0  0  0  0  0  0
   31.7435   29.3446   37.1542 C   0  0  0  0  0  0  0  0  0  0  0  0
  1  2  1  0
  2  3  2  0
  2  4  1  0
  4  5  2  0
  5  6  1  0
  6  7  2  0
  7  8  1  0
  8  9  2  0
  9 10  1  0
 10 11  2  0
 11 12  1  0
 12 13  2  0
 13 14  1  0
  8 15  1  0
 15 16  2  0
 16 17  1  0
 17 18  1  0
 18 19  1  0
 19 20  1  0
 19 21  1  0
 21 22  1  0
 22 23  1  0
 23 24  2  0
 23 25  1  0
 25 26  1  0
 26 27  2  0
 13  4  1  0
 27 15  1  0
 12  7  1  0
 25 17  2  0
M  END
>  <AAScore>  (1) 
25.323010756917324

>  <RootName>  (1) 
./4ZLY/04_DeltaGEst/trajectory_02/rank_01/lead_0403

$$$$
