confid_6
     RDKit          3D

 27 30  0  0  0  0  0  0  0  0999 V2000
   24.6900   26.1200   35.5300 N   0  0  0  0  0  0  0  0  0  0  0  0
   25.6600   25.6700   34.6600 C   0  0  0  0  0  0  0  0  0  0  0  0
   25.2400   25.0100   33.7200 O   0  0  0  0  0  0  0  0  0  0  0  0
   27.0300   26.2200   34.8800 C   0  0  0  0  0  0  0  0  0  0  0  0
   27.3500   26.7300   36.0700 N   0  0  0  0  0  0  0  0  0  0  0  0
   28.5700   27.1800   36.3300 N   0  0  0  0  0  0  0  0  0  0  0  0
   29.5300   27.1100   35.3900 C   0  0  0  0  0  0  0  0  0  0  0  0
   30.8300   27.5700   35.6500 C   0  0  0  0  0  0  0  0  0  0  0  0
   31.8500   27.5400   34.6900 C   0  0  0  0  0  0  0  0  0  0  0  0
   31.5100   27.1200   33.4000 C   0  0  0  0  0  0  0  0  0  0  0  0
   30.2200   26.6300   33.1100 C   0  0  0  0  0  0  0  0  0  0  0  0
   29.2400   26.6600   34.1000 C   0  0  0  0  0  0  0  0  0  0  0  0
   27.9300   26.2600   33.8100 C   0  0  0  0  0  0  0  0  0  0  0  0
   27.5200   25.7100   32.6100 N   0  0  0  0  0  0  0  0  0  0  0  0
   23.3355   26.4307   35.1544 C   0  0  0  0  0  0  0  0  0  0  0  0
   22.3511   26.3241   36.0846 N   0  0  0  0  0  0  0  0  0  0  0  0
   21.0552   26.6185   35.8048 C   0  0  0  0  0  0  0  0  0  0  0  0
   20.6779   27.0531   34.5241 C   0  0  0  0  0  0  0  0  0  0  0  0
   19.2193   27.4189   34.3138 C   0  0  0  0  0  0  0  0  0  0  0  0
   18.9024   27.8560   32.9374 N   0  0  0  0  0  0  0  0  0  0  0  0
   19.1215   26.7796   31.9500 C   0  0  0  0  0  0  0  0  0  0  0  0
   20.5248   26.9088   31.3587 C   0  0  0  0  0  0  0  0  0  0  0  0
   21.4145   27.5991   32.2349 O   0  0  0  0  0  0  0  0  0  0  0  0
   21.6864   27.1750   33.5382 C   0  0  0  0  0  0  0  0  0  0  0  0
   23.0140   26.8883   33.8673 C   0  0  0  0  0  0  0  0  0  0  0  0
   17.5585   28.4683   32.8323 C   0  0  0  0  0  0  0  0  0  0  0  0
   16.4095   27.5151   33.1942 C   0  0  0  0  0  0  0  0  0  0  0  0
  1  2  1  0
  2  3  2  0
  2  4  1  0
  4  5  2  0
  5  6  1  0
  6  7  2  0
  7  8  1  0
  8  9  2  0
  9 10  1  0
 10 11  2  0
 11 12  1  0
 12 13  2  0
 13 14  1  0
  1 15  1  0
 15 16  2  0
 16 17  1  0
 17 18  2  0
 18 19  1  0
 19 20  1  0
 20 21  1  0
 21 22  1  0
 22 23  1  0
 23 24  1  0
 24 25  2  0
 20 26  1  0
 26 27  1  0
 13  4  1  0
 25 15  1  0
 12  7  1  0
 24 18  1  0
M  END
>  <AAScore>  (1) 
3997.9025559960655

>  <RootName>  (1) 
./4ZLY/04_DeltaGEst/trajectory_02/rank_00/lead_0188

$$$$
