confid_12
     RDKit          3D

 26 29  0  0  0  0  0  0  0  0999 V2000
   24.4800   26.1000   36.1300 N   0  0  0  0  0  0  0  0  0  0  0  0
   25.2500   26.2500   34.9900 C   0  0  0  0  0  0  0  0  0  0  0  0
   24.7400   25.7600   33.9900 O   0  0  0  0  0  0  0  0  0  0  0  0
   26.5900   26.8900   34.9600 C   0  0  0  0  0  0  0  0  0  0  0  0
   27.0600   27.2400   36.1600 N   0  0  0  0  0  0  0  0  0  0  0  0
   28.3000   27.7100   36.2400 N   0  0  0  0  0  0  0  0  0  0  0  0
   29.0500   27.9600   35.1500 C   0  0  0  0  0  0  0  0  0  0  0  0
   30.3400   28.4900   35.2600 C   0  0  0  0  0  0  0  0  0  0  0  0
   31.1100   28.8200   34.1400 C   0  0  0  0  0  0  0  0  0  0  0  0
   30.5200   28.6700   32.8800 C   0  0  0  0  0  0  0  0  0  0  0  0
   29.2900   28.0200   32.7700 C   0  0  0  0  0  0  0  0  0  0  0  0
   28.5200   27.7100   33.8900 C   0  0  0  0  0  0  0  0  0  0  0  0
   27.2700   27.0800   33.7600 C   0  0  0  0  0  0  0  0  0  0  0  0
   26.7500   26.8800   32.4900 N   0  0  0  0  0  0  0  0  0  0  0  0
   23.0438   26.0426   36.1583 C   0  0  0  0  0  0  0  0  0  0  0  0
   22.3574   25.7115   37.2780 N   0  0  0  0  0  0  0  0  0  0  0  0
   21.0158   25.7846   37.0767 C   0  0  0  0  0  0  0  0  0  0  0  0
   19.9981   25.3936   38.1049 C   0  0  0  0  0  0  0  0  0  0  0  0
   18.6752   26.1547   37.8917 C   0  0  0  0  0  0  0  0  0  0  0  0
   18.2624   26.1895   36.4372 C   0  0  0  0  0  0  0  0  0  0  0  0
   17.0362   26.2075   36.1449 O   0  0  0  0  0  0  0  0  0  0  0  0
   19.2633   26.2836   35.4011 N   0  0  0  0  0  0  0  0  0  0  0  0
   20.6363   26.1558   35.8004 C   0  0  0  0  0  0  0  0  0  0  0  0
   22.0113   26.4437   34.8735 S   0  0  0  0  0  0  0  0  0  0  0  0
   18.8975   26.5925   34.0139 C   0  0  0  0  0  0  0  0  0  0  0  0
   18.8189   28.1009   33.8095 C   0  0  0  0  0  0  0  0  0  0  0  0
  1  2  1  0
  2  3  2  0
  2  4  1  0
  4  5  2  0
  5  6  1  0
  6  7  2  0
  7  8  1  0
  8  9  2  0
  9 10  1  0
 10 11  2  0
 11 12  1  0
 12 13  2  0
 13 14  1  0
  1 15  1  0
 15 16  2  0
 16 17  1  0
 17 18  1  0
 18 19  1  0
 19 20  1  0
 20 21  2  0
 20 22  1  0
 22 23  1  0
 23 24  1  0
 22 25  1  0
 25 26  1  0
 13  4  1  0
 24 15  1  0
 12  7  1  0
 23 17  2  0
M  END
>  <AAScore>  (1) 
377.3856428713835

>  <RootName>  (1) 
./4ZLY/04_DeltaGEst/trajectory_00/rank_01/lead_0000

$$$$
