confid_0
     RDKit          3D

 26 28  0  0  0  0  0  0  0  0999 V2000
   24.4800   26.1000   36.1300 N   0  0  0  0  0  0  0  0  0  0  0  0
   25.2500   26.2500   34.9900 C   0  0  0  0  0  0  0  0  0  0  0  0
   24.7400   25.7600   33.9900 O   0  0  0  0  0  0  0  0  0  0  0  0
   26.5900   26.8900   34.9600 C   0  0  0  0  0  0  0  0  0  0  0  0
   27.0600   27.2400   36.1600 N   0  0  0  0  0  0  0  0  0  0  0  0
   28.3000   27.7100   36.2400 N   0  0  0  0  0  0  0  0  0  0  0  0
   29.0500   27.9600   35.1500 C   0  0  0  0  0  0  0  0  0  0  0  0
   30.3400   28.4900   35.2600 C   0  0  0  0  0  0  0  0  0  0  0  0
   31.1100   28.8200   34.1400 C   0  0  0  0  0  0  0  0  0  0  0  0
   30.5200   28.6700   32.8800 C   0  0  0  0  0  0  0  0  0  0  0  0
   29.2900   28.0200   32.7700 C   0  0  0  0  0  0  0  0  0  0  0  0
   28.5200   27.7100   33.8900 C   0  0  0  0  0  0  0  0  0  0  0  0
   27.2700   27.0800   33.7600 C   0  0  0  0  0  0  0  0  0  0  0  0
   26.7500   26.8800   32.4900 N   0  0  0  0  0  0  0  0  0  0  0  0
   23.5237   25.0449   36.3537 C   0  0  0  0  0  0  0  0  0  0  0  0
   22.4086   25.2898   37.1697 C   0  0  0  0  0  0  0  0  0  0  0  0
   21.4739   24.2751   37.4304 C   0  0  0  0  0  0  0  0  0  0  0  0
   20.0573   24.5882   38.4383 S   0  0  0  0  0  6  0  0  0  0  0  0
   19.8993   23.4700   39.4300 O   0  0  0  0  0  0  0  0  0  0  0  0
   18.8364   24.6566   37.5652 O   0  0  0  0  0  0  0  0  0  0  0  0
   20.2017   26.1138   39.3478 C   0  0  0  0  0  0  0  0  0  0  0  0
   21.6631   23.0027   36.8675 C   0  0  0  0  0  0  0  0  0  0  0  0
   22.7838   22.7460   36.0724 C   0  0  0  0  0  0  0  0  0  0  0  0
   22.9737   21.5103   35.5470 F   0  0  0  0  0  0  0  0  0  0  0  0
   23.7146   23.7570   35.8224 C   0  0  0  0  0  0  0  0  0  0  0  0
   20.7652   22.0097   37.0911 F   0  0  0  0  0  0  0  0  0  0  0  0
  1  2  1  0
  2  3  2  0
  2  4  1  0
  4  5  2  0
  5  6  1  0
  6  7  2  0
  7  8  1  0
  8  9  2  0
  9 10  1  0
 10 11  2  0
 11 12  1  0
 12 13  2  0
 13 14  1  0
  1 15  1  0
 15 16  2  0
 16 17  1  0
 17 18  1  0
 18 19  2  0
 18 20  2  0
 18 21  1  0
 17 22  2  0
 22 23  1  0
 23 24  1  0
 23 25  2  0
 22 26  1  0
 13  4  1  0
 25 15  1  0
 12  7  1  0
M  END
>  <AAScore>  (1) 
1159.457667277229

>  <RootName>  (1) 
./4ZLY/04_DeltaGEst/trajectory_00/rank_00/lead_0196

$$$$
