confid_12
     RDKit          3D

 29 33  0  0  0  0  0  0  0  0999 V2000
   25.3300   26.2600   34.7600 N   0  0  0  0  0  0  0  0  0  0  0  0
   26.1200   25.9200   33.6900 C   0  0  0  0  0  0  0  0  0  0  0  0
   25.6300   25.1100   32.9400 O   0  0  0  0  0  0  0  0  0  0  0  0
   27.5200   26.3800   33.4600 C   0  0  0  0  0  0  0  0  0  0  0  0
   28.1600   26.6300   34.6100 N   0  0  0  0  0  0  0  0  0  0  0  0
   29.4800   26.8500   34.5700 N   0  0  0  0  0  0  0  0  0  0  0  0
   30.1900   26.7800   33.4400 C   0  0  0  0  0  0  0  0  0  0  0  0
   31.5600   27.0500   33.5000 C   0  0  0  0  0  0  0  0  0  0  0  0
   32.2700   27.2400   32.3100 C   0  0  0  0  0  0  0  0  0  0  0  0
   31.6100   27.2500   31.0800 C   0  0  0  0  0  0  0  0  0  0  0  0
   30.2700   26.8700   31.0600 C   0  0  0  0  0  0  0  0  0  0  0  0
   29.5100   26.6900   32.2300 C   0  0  0  0  0  0  0  0  0  0  0  0
   28.1400   26.4100   32.2000 C   0  0  0  0  0  0  0  0  0  0  0  0
   27.4300   26.1300   31.0500 N   0  0  0  0  0  0  0  0  0  0  0  0
   24.2589   25.4491   35.3028 C   0  0  0  0  0  0  0  0  0  0  0  0
   24.1201   24.1563   34.8976 N   0  0  0  0  0  0  0  0  0  0  0  0
   23.1606   23.3273   35.3823 C   0  0  0  0  0  0  0  0  0  0  0  0
   23.1054   21.9104   34.8750 C   0  0  0  0  0  0  0  0  0  0  0  0
   21.7629   21.1745   35.1340 C   0  0  0  0  0  0  0  0  0  0  0  0
   20.7074   21.9990   35.7623 N   0  0  0  0  0  0  0  0  0  0  0  0
   21.2297   22.8197   36.8724 C   0  0  0  0  0  0  0  0  0  0  0  0
   22.2904   23.7764   36.3852 C   0  0  0  0  0  0  0  0  0  0  0  0
   22.4352   25.0912   36.8862 C   0  0  0  0  0  0  0  0  0  0  0  0
   21.5301   25.6206   37.9898 C   0  0  0  0  0  0  0  0  0  0  0  0
   22.0322   26.8003   38.5922 O   0  0  0  0  0  0  0  0  0  0  0  0
   22.2660   27.7791   37.6028 C   0  0  0  0  0  0  0  0  0  0  0  0
   23.4930   27.3867   36.7771 C   0  0  0  0  0  0  0  0  0  0  0  0
   23.3901   25.9546   36.3006 C   0  0  0  0  0  0  0  0  0  0  0  0
   19.9657   22.8036   34.7723 C   0  0  0  0  0  0  0  0  0  0  0  0
  1  2  1  0
  2  3  2  0
  2  4  1  0
  4  5  2  0
  5  6  1  0
  6  7  2  0
  7  8  1  0
  8  9  2  0
  9 10  1  0
 10 11  2  0
 11 12  1  0
 12 13  2  0
 13 14  1  0
  1 15  1  0
 15 16  2  0
 16 17  1  0
 17 18  1  0
 18 19  1  0
 19 20  1  0
 20 21  1  0
 21 22  1  0
 22 23  1  0
 23 24  1  0
 24 25  1  0
 25 26  1  0
 26 27  1  0
 27 28  1  0
 20 29  1  0
 13  4  1  0
 28 15  1  0
 12  7  1  0
 22 17  2  0
 28 23  2  0
M  END
>  <AAScore>  (1) 
540.4739521577421

>  <RootName>  (1) 
./4ZLY/04_DeltaGEst/trajectory_03/rank_00/lead_0155

$$$$
