confid_0
     RDKit          3D

 29 33  0  0  0  0  0  0  0  0999 V2000
   24.6900   26.1200   35.5300 N   0  0  0  0  0  0  0  0  0  0  0  0
   25.6600   25.6700   34.6600 C   0  0  0  0  0  0  0  0  0  0  0  0
   25.2400   25.0100   33.7200 O   0  0  0  0  0  0  0  0  0  0  0  0
   27.0300   26.2200   34.8800 C   0  0  0  0  0  0  0  0  0  0  0  0
   27.3500   26.7300   36.0700 N   0  0  0  0  0  0  0  0  0  0  0  0
   28.5700   27.1800   36.3300 N   0  0  0  0  0  0  0  0  0  0  0  0
   29.5300   27.1100   35.3900 C   0  0  0  0  0  0  0  0  0  0  0  0
   30.8300   27.5700   35.6500 C   0  0  0  0  0  0  0  0  0  0  0  0
   31.8500   27.5400   34.6900 C   0  0  0  0  0  0  0  0  0  0  0  0
   31.5100   27.1200   33.4000 C   0  0  0  0  0  0  0  0  0  0  0  0
   30.2200   26.6300   33.1100 C   0  0  0  0  0  0  0  0  0  0  0  0
   29.2400   26.6600   34.1000 C   0  0  0  0  0  0  0  0  0  0  0  0
   27.9300   26.2600   33.8100 C   0  0  0  0  0  0  0  0  0  0  0  0
   27.5200   25.7100   32.6100 N   0  0  0  0  0  0  0  0  0  0  0  0
   23.2680   26.1468   35.2754 C   0  0  0  0  0  0  0  0  0  0  0  0
   22.8029   25.8719   34.0832 N   0  0  0  0  0  0  0  0  0  0  0  0
   21.4122   25.8360   33.7425 C   0  0  0  0  0  0  0  0  0  0  0  0
   20.5950   25.0281   34.4051 C   0  0  0  0  0  0  0  0  0  0  0  0
   19.1331   24.7764   34.6212 C   0  0  0  0  0  0  0  0  0  0  0  0
   19.3164   23.8452   35.6427 O   0  0  0  0  0  0  0  0  0  0  0  0
   20.6915   23.9572   35.4561 C   0  0  2  0  0  0  0  0  0  0  0  0
   21.4479   24.3618   36.7400 C   0  0  0  0  0  0  0  0  0  0  0  0
   21.4769   25.8511   36.9918 C   0  0  0  0  0  0  0  0  0  0  0  0
   22.3663   26.6579   36.3536 C   0  0  0  0  0  0  0  0  0  0  0  0
   22.5105   28.1147   36.7319 C   0  0  0  0  0  0  0  0  0  0  0  0
   21.4325   28.9265   36.2961 O   0  0  0  0  0  0  0  0  0  0  0  0
   20.1484   28.4586   36.6870 C   0  0  0  0  0  0  0  0  0  0  0  0
   20.0957   27.7063   38.0302 C   0  0  0  0  0  0  0  0  0  0  0  0
   20.5037   26.3436   37.8830 O   0  0  0  0  0  0  0  0  0  0  0  0
  1  2  1  0
  2  3  2  0
  2  4  1  0
  4  5  2  0
  5  6  1  0
  6  7  2  0
  7  8  1  0
  8  9  2  0
  9 10  1  0
 10 11  2  0
 11 12  1  0
 12 13  2  0
 13 14  1  0
  1 15  1  0
 15 16  2  0
 16 17  1  0
 17 18  2  0
 18 19  1  0
 19 20  1  0
 20 21  1  0
 21 22  1  1
 22 23  1  0
 23 24  2  0
 24 25  1  0
 25 26  1  0
 26 27  1  0
 27 28  1  0
 28 29  1  0
 13  4  1  0
 24 15  1  0
 12  7  1  0
 21 18  1  0
 29 23  1  0
M  END
>  <AAScore>  (1) 
852698.2339446931

>  <RootName>  (1) 
./4ZLY/04_DeltaGEst/trajectory_02/rank_00/lead_0268

$$$$
