confid_9
     RDKit          3D

 30 34  0  0  0  0  0  0  0  0999 V2000
   24.6900   26.1200   35.5300 N   0  0  0  0  0  0  0  0  0  0  0  0
   25.6600   25.6700   34.6600 C   0  0  0  0  0  0  0  0  0  0  0  0
   25.2400   25.0100   33.7200 O   0  0  0  0  0  0  0  0  0  0  0  0
   27.0300   26.2200   34.8800 C   0  0  0  0  0  0  0  0  0  0  0  0
   27.3500   26.7300   36.0700 N   0  0  0  0  0  0  0  0  0  0  0  0
   28.5700   27.1800   36.3300 N   0  0  0  0  0  0  0  0  0  0  0  0
   29.5300   27.1100   35.3900 C   0  0  0  0  0  0  0  0  0  0  0  0
   30.8300   27.5700   35.6500 C   0  0  0  0  0  0  0  0  0  0  0  0
   31.8500   27.5400   34.6900 C   0  0  0  0  0  0  0  0  0  0  0  0
   31.5100   27.1200   33.4000 C   0  0  0  0  0  0  0  0  0  0  0  0
   30.2200   26.6300   33.1100 C   0  0  0  0  0  0  0  0  0  0  0  0
   29.2400   26.6600   34.1000 C   0  0  0  0  0  0  0  0  0  0  0  0
   27.9300   26.2600   33.8100 C   0  0  0  0  0  0  0  0  0  0  0  0
   27.5200   25.7100   32.6100 N   0  0  0  0  0  0  0  0  0  0  0  0
   31.1835   28.0726   37.0011 C   0  0  0  0  0  0  0  0  0  0  0  0
   30.9712   27.2692   38.1405 C   0  0  0  0  0  0  0  0  0  0  0  0
   31.3228   27.7709   39.3929 C   0  0  0  0  0  0  0  0  0  0  0  0
   31.1977   27.0847   40.7132 C   0  0  0  0  0  0  0  0  0  0  0  0
   31.7374   28.1542   41.6100 C   0  0  0  0  0  0  0  0  0  0  0  0
   31.7823   28.0616   42.8651 O   0  0  0  0  0  0  0  0  0  0  0  0
   32.1652   29.3157   40.9026 N   0  0  0  0  0  0  0  0  0  0  0  0
   31.8686   29.0326   39.5367 C   0  0  0  0  0  0  0  0  0  0  0  0
   32.1167   29.8345   38.4225 C   0  0  0  0  0  0  0  0  0  0  0  0
   31.7678   29.3515   37.1521 C   0  0  0  0  0  0  0  0  0  0  0  0
   32.2756   30.5794   41.5240 N   0  0  0  0  0  0  0  0  0  0  0  0
   31.0640   31.4183   41.4359 C   0  0  0  0  0  0  0  0  0  0  0  0
   31.2377   32.6498   40.5453 C   0  0  0  0  0  0  0  0  0  0  0  0
   32.5294   33.3826   40.8836 C   0  0  0  0  0  0  0  0  0  0  0  0
   33.7248   32.4669   40.6498 C   0  0  0  0  0  0  0  0  0  0  0  0
   33.6275   31.1716   41.4696 C   0  0  0  0  0  0  0  0  0  0  0  0
  1  2  1  0
  2  3  2  0
  2  4  1  0
  4  5  2  0
  5  6  1  0
  6  7  2  0
  7  8  1  0
  8  9  2  0
  9 10  1  0
 10 11  2  0
 11 12  1  0
 12 13  2  0
 13 14  1  0
  8 15  1  0
 15 16  2  0
 16 17  1  0
 17 18  1  0
 18 19  1  0
 19 20  2  0
 19 21  1  0
 21 22  1  0
 22 23  1  0
 23 24  2  0
 21 25  1  0
 25 26  1  0
 26 27  1  0
 27 28  1  0
 28 29  1  0
 29 30  1  0
 13  4  1  0
 24 15  1  0
 30 25  1  0
 12  7  1  0
 22 17  2  0
M  END
>  <AAScore>  (1) 
18.58698810743997

>  <RootName>  (1) 
./4ZLY/04_DeltaGEst/trajectory_02/rank_01/lead_0318

$$$$
