confid_13
     RDKit          3D

 31 34  0  0  0  0  0  0  0  0999 V2000
   24.6900   26.1200   35.5300 N   0  0  0  0  0  0  0  0  0  0  0  0
   25.6600   25.6700   34.6600 C   0  0  0  0  0  0  0  0  0  0  0  0
   25.2400   25.0100   33.7200 O   0  0  0  0  0  0  0  0  0  0  0  0
   27.0300   26.2200   34.8800 C   0  0  0  0  0  0  0  0  0  0  0  0
   27.3500   26.7300   36.0700 N   0  0  0  0  0  0  0  0  0  0  0  0
   28.5700   27.1800   36.3300 N   0  0  0  0  0  0  0  0  0  0  0  0
   29.5300   27.1100   35.3900 C   0  0  0  0  0  0  0  0  0  0  0  0
   30.8300   27.5700   35.6500 C   0  0  0  0  0  0  0  0  0  0  0  0
   31.8500   27.5400   34.6900 C   0  0  0  0  0  0  0  0  0  0  0  0
   31.5100   27.1200   33.4000 C   0  0  0  0  0  0  0  0  0  0  0  0
   30.2200   26.6300   33.1100 C   0  0  0  0  0  0  0  0  0  0  0  0
   29.2400   26.6600   34.1000 C   0  0  0  0  0  0  0  0  0  0  0  0
   27.9300   26.2600   33.8100 C   0  0  0  0  0  0  0  0  0  0  0  0
   27.5200   25.7100   32.6100 N   0  0  0  0  0  0  0  0  0  0  0  0
   23.2622   25.9228   35.3982 C   0  0  0  0  0  0  0  0  0  0  0  0
   22.7584   25.5069   34.2688 N   0  0  0  0  0  0  0  0  0  0  0  0
   21.3627   25.3264   34.0244 C   0  0  0  0  0  0  0  0  0  0  0  0
   20.8362   24.1161   33.7689 C   0  0  0  0  0  0  0  0  0  0  0  0
   19.3544   24.0108   33.4878 C   0  0  0  0  0  0  0  0  0  0  0  0
   18.8113   22.7300   34.0028 N   0  0  0  0  0  0  0  0  0  0  0  0
   18.9095   21.6452   32.9970 C   0  0  0  0  0  0  0  0  0  0  0  0
   20.2982   20.9981   33.0030 C   0  0  0  0  0  0  0  0  0  0  0  0
   21.4079   21.9760   32.6151 C   0  0  0  0  0  0  0  0  0  0  0  0
   21.6564   22.9273   33.7033 N   0  0  0  0  0  0  0  0  0  0  0  0
   22.5943   22.5453   34.7803 C   0  0  0  0  0  0  0  0  0  0  0  0
   21.9510   22.5844   36.1837 C   0  0  0  0  0  0  0  0  0  0  0  0
   22.5280   23.6966   36.9809 N   0  0  0  0  0  0  0  0  0  0  0  0
   22.9716   23.2478   38.3103 C   0  0  0  0  0  0  0  0  0  0  0  0
   21.6427   24.8834   37.0779 C   0  0  0  0  0  0  0  0  0  0  0  0
   22.3827   26.1534   36.6173 C   0  0  0  0  0  0  0  0  0  0  0  0
   17.4076   22.9023   34.4149 C   0  0  0  0  0  0  0  0  0  0  0  0
  1  2  1  0
  2  3  2  0
  2  4  1  0
  4  5  2  0
  5  6  1  0
  6  7  2  0
  7  8  1  0
  8  9  2  0
  9 10  1  0
 10 11  2  0
 11 12  1  0
 12 13  2  0
 13 14  1  0
  1 15  1  0
 15 16  2  0
 16 17  1  0
 17 18  2  0
 18 19  1  0
 19 20  1  0
 20 21  1  0
 21 22  1  0
 22 23  1  0
 23 24  1  0
 24 25  1  0
 25 26  1  0
 26 27  1  0
 27 28  1  0
 27 29  1  0
 29 30  1  0
 20 31  1  0
 13  4  1  0
 30 15  1  0
 12  7  1  0
 24 18  1  0
M  END
>  <AAScore>  (1) 
2344.6335090424723

>  <RootName>  (1) 
./4ZLY/04_DeltaGEst/trajectory_02/rank_00/lead_0279

$$$$
