confid_3
     RDKit          3D

 29 32  0  0  0  0  0  0  0  0999 V2000
   24.5500   26.3900   36.2500 N   0  0  0  0  0  0  0  0  0  0  0  0
   25.6000   26.1300   35.4000 C   0  0  0  0  0  0  0  0  0  0  0  0
   25.4300   25.4300   34.4200 O   0  0  0  0  0  0  0  0  0  0  0  0
   26.9800   26.6300   35.7100 C   0  0  0  0  0  0  0  0  0  0  0  0
   27.3200   26.8200   36.9800 N   0  0  0  0  0  0  0  0  0  0  0  0
   28.4700   27.4000   37.3100 N   0  0  0  0  0  0  0  0  0  0  0  0
   29.4000   27.6300   36.3700 C   0  0  0  0  0  0  0  0  0  0  0  0
   30.6600   28.0500   36.8000 C   0  0  0  0  0  0  0  0  0  0  0  0
   31.5700   28.3600   35.7800 C   0  0  0  0  0  0  0  0  0  0  0  0
   31.3700   28.1000   34.4300 C   0  0  0  0  0  0  0  0  0  0  0  0
   30.1200   27.5900   34.0500 C   0  0  0  0  0  0  0  0  0  0  0  0
   29.1500   27.3400   35.0300 C   0  0  0  0  0  0  0  0  0  0  0  0
   27.8800   26.8900   34.6600 C   0  0  0  0  0  0  0  0  0  0  0  0
   27.4800   26.6100   33.3700 N   0  0  0  0  0  0  0  0  0  0  0  0
   30.9955   28.2784   38.2279 C   0  0  0  0  0  0  0  0  0  0  0  0
   31.0805   27.1657   39.0609 C   0  0  0  0  0  0  0  0  0  0  0  0
   31.4012   27.2746   40.4209 C   0  0  0  0  0  0  0  0  0  0  0  0
   31.3949   25.9501   41.1800 C   0  0  0  0  0  0  0  0  0  0  0  0
   32.1938   25.8947   42.4811 C   0  0  0  0  0  0  0  0  0  0  0  0
   31.4344   26.5528   43.5431 N   0  0  0  0  0  0  0  0  0  0  0  0
   31.0898   27.9326   43.3804 C   0  0  0  0  0  0  0  0  0  0  0  0
   30.1175   28.4241   44.0167 O   0  0  0  0  0  0  0  0  0  0  0  0
   31.8947   28.8034   42.4653 C   0  0  0  0  0  0  0  0  0  0  0  0
   31.6247   28.5752   40.9784 C   0  0  0  0  0  0  0  0  0  0  0  0
   31.6862   29.6971   40.0921 C   0  0  0  0  0  0  0  0  0  0  0  0
   32.1935   31.0424   40.5823 C   0  0  0  0  0  0  0  0  0  0  0  0
   31.2584   29.5633   38.7440 C   0  0  0  0  0  0  0  0  0  0  0  0
   31.0960   30.7824   37.8569 C   0  0  0  0  0  0  0  0  0  0  0  0
   30.9340   25.8042   44.6990 C   0  0  0  0  0  0  0  0  0  0  0  0
  1  2  1  0
  2  3  2  0
  2  4  1  0
  4  5  2  0
  5  6  1  0
  6  7  2  0
  7  8  1  0
  8  9  2  0
  9 10  1  0
 10 11  2  0
 11 12  1  0
 12 13  2  0
 13 14  1  0
  8 15  1  0
 15 16  2  0
 16 17  1  0
 17 18  1  0
 18 19  1  0
 19 20  1  0
 20 21  1  0
 21 22  2  0
 21 23  1  0
 23 24  1  0
 24 25  1  0
 25 26  1  0
 25 27  2  0
 27 28  1  0
 20 29  1  0
 13  4  1  0
 27 15  1  0
 12  7  1  0
 24 17  2  0
M  END
>  <AAScore>  (1) 
22.424447868882705

>  <RootName>  (1) 
./4ZLY/04_DeltaGEst/trajectory_01/rank_01/lead_0063

$$$$
