confid_15
     RDKit          3D

 30 33  0  0  0  0  0  0  0  0999 V2000
   24.5500   26.3900   36.2500 N   0  0  0  0  0  0  0  0  0  0  0  0
   25.6000   26.1300   35.4000 C   0  0  0  0  0  0  0  0  0  0  0  0
   25.4300   25.4300   34.4200 O   0  0  0  0  0  0  0  0  0  0  0  0
   26.9800   26.6300   35.7100 C   0  0  0  0  0  0  0  0  0  0  0  0
   27.3200   26.8200   36.9800 N   0  0  0  0  0  0  0  0  0  0  0  0
   28.4700   27.4000   37.3100 N   0  0  0  0  0  0  0  0  0  0  0  0
   29.4000   27.6300   36.3700 C   0  0  0  0  0  0  0  0  0  0  0  0
   30.6600   28.0500   36.8000 C   0  0  0  0  0  0  0  0  0  0  0  0
   31.5700   28.3600   35.7800 C   0  0  0  0  0  0  0  0  0  0  0  0
   31.3700   28.1000   34.4300 C   0  0  0  0  0  0  0  0  0  0  0  0
   30.1200   27.5900   34.0500 C   0  0  0  0  0  0  0  0  0  0  0  0
   29.1500   27.3400   35.0300 C   0  0  0  0  0  0  0  0  0  0  0  0
   27.8800   26.8900   34.6600 C   0  0  0  0  0  0  0  0  0  0  0  0
   27.4800   26.6100   33.3700 N   0  0  0  0  0  0  0  0  0  0  0  0
   23.1881   25.9835   36.0078 C   0  0  0  0  0  0  0  0  0  0  0  0
   22.7675   25.4764   34.8284 N   0  0  0  0  0  0  0  0  0  0  0  0
   21.4460   25.2933   34.9962 C   0  0  0  0  0  0  0  0  0  0  0  0
   21.0812   25.7025   36.2604 C   0  0  0  0  0  0  0  0  0  0  0  0
   19.6825   25.6139   36.8052 C   0  0  0  0  0  0  0  0  0  0  0  0
   19.3093   26.8519   37.4977 N   0  0  0  0  0  0  0  0  0  0  0  0
   19.9453   27.1819   38.7466 C   0  0  0  0  0  0  0  0  0  0  0  0
   19.5016   28.1242   39.4582 O   0  0  0  0  0  0  0  0  0  0  0  0
   21.1654   26.4379   39.1998 C   0  0  0  0  0  0  0  0  0  0  0  0
   22.3417   26.7092   38.2598 C   0  0  0  0  0  0  0  0  0  0  0  0
   22.1915   26.1185   36.9177 N   0  0  0  0  0  0  0  0  0  0  0  0
   18.2809   27.7360   36.9274 C   0  0  0  0  0  0  0  0  0  0  0  0
   18.9217   28.8826   36.1442 C   0  0  0  0  0  0  0  0  0  0  0  0
   19.6926   28.3783   35.1123 F   0  0  0  0  0  0  0  0  0  0  0  0
   19.7191   29.6482   36.9752 F   0  0  0  0  0  0  0  0  0  0  0  0
   17.9301   29.6856   35.6115 F   0  0  0  0  0  0  0  0  0  0  0  0
  1  2  1  0
  2  3  2  0
  2  4  1  0
  4  5  2  0
  5  6  1  0
  6  7  2  0
  7  8  1  0
  8  9  2  0
  9 10  1  0
 10 11  2  0
 11 12  1  0
 12 13  2  0
 13 14  1  0
  1 15  1  0
 15 16  2  0
 16 17  1  0
 17 18  2  0
 18 19  1  0
 19 20  1  0
 20 21  1  0
 21 22  2  0
 21 23  1  0
 23 24  1  0
 24 25  1  0
 20 26  1  0
 26 27  1  0
 27 28  1  0
 27 29  1  0
 27 30  1  0
 13  4  1  0
 25 15  1  0
 12  7  1  0
 25 18  1  0
M  END
>  <AAScore>  (1) 
2310.171335406843

>  <RootName>  (1) 
./4ZLY/04_DeltaGEst/trajectory_01/rank_00/lead_0228

$$$$
