confid_6
     RDKit          3D

 29 32  0  0  0  0  0  0  0  0999 V2000
   24.5500   26.3900   36.2500 N   0  0  0  0  0  0  0  0  0  0  0  0
   25.6000   26.1300   35.4000 C   0  0  0  0  0  0  0  0  0  0  0  0
   25.4300   25.4300   34.4200 O   0  0  0  0  0  0  0  0  0  0  0  0
   26.9800   26.6300   35.7100 C   0  0  0  0  0  0  0  0  0  0  0  0
   27.3200   26.8200   36.9800 N   0  0  0  0  0  0  0  0  0  0  0  0
   28.4700   27.4000   37.3100 N   0  0  0  0  0  0  0  0  0  0  0  0
   29.4000   27.6300   36.3700 C   0  0  0  0  0  0  0  0  0  0  0  0
   30.6600   28.0500   36.8000 C   0  0  0  0  0  0  0  0  0  0  0  0
   31.5700   28.3600   35.7800 C   0  0  0  0  0  0  0  0  0  0  0  0
   31.3700   28.1000   34.4300 C   0  0  0  0  0  0  0  0  0  0  0  0
   30.1200   27.5900   34.0500 C   0  0  0  0  0  0  0  0  0  0  0  0
   29.1500   27.3400   35.0300 C   0  0  0  0  0  0  0  0  0  0  0  0
   27.8800   26.8900   34.6600 C   0  0  0  0  0  0  0  0  0  0  0  0
   27.4800   26.6100   33.3700 N   0  0  0  0  0  0  0  0  0  0  0  0
   23.1801   25.8914   36.0419 C   0  0  1  0  0  0  0  0  0  0  0  0
   22.8078   24.8218   37.0924 C   0  0  0  0  0  0  0  0  0  0  0  0
   22.7917   25.3196   38.5431 C   0  0  0  0  0  0  0  0  0  0  0  0
   21.7300   26.3120   38.7509 N   0  0  0  0  0  0  0  0  0  0  0  0
   20.3967   25.9503   39.1757 C   0  0  0  0  0  0  0  0  0  0  0  0
   19.4996   26.8348   39.2430 O   0  0  0  0  0  0  0  0  0  0  0  0
   20.0407   24.5436   39.5535 C   0  0  0  0  0  0  0  0  0  0  0  0
   22.0212   27.6770   38.4205 C   0  0  0  0  0  0  0  0  0  0  0  0
   22.2900   28.0527   37.0923 C   0  0  0  0  0  0  0  0  0  0  0  0
   22.6339   29.3857   36.8175 C   0  0  0  0  0  0  0  0  0  0  0  0
   22.7026   30.3154   37.8623 C   0  0  0  0  0  0  0  0  0  0  0  0
   23.0525   31.7422   37.5826 C   0  0  0  0  0  0  0  0  0  0  0  0
   22.4190   29.9250   39.1340 N   0  0  0  0  0  0  0  0  0  0  0  0
   22.0847   28.6426   39.4323 C   0  0  0  0  0  0  0  0  0  0  0  0
   22.1670   27.0539   35.9636 C   0  0  0  0  0  0  0  0  0  0  0  0
  1  2  1  0
  2  3  2  0
  2  4  1  0
  4  5  2  0
  5  6  1  0
  6  7  2  0
  7  8  1  0
  8  9  2  0
  9 10  1  0
 10 11  2  0
 11 12  1  0
 12 13  2  0
 13 14  1  0
 15  1  1  1
 15 16  1  0
 16 17  1  0
 17 18  1  0
 18 19  1  0
 19 20  2  0
 19 21  1  0
 18 22  1  0
 22 23  2  0
 23 24  1  0
 24 25  2  0
 25 26  1  0
 25 27  1  0
 27 28  2  0
 23 29  1  0
 13  4  1  0
 29 15  1  0
 12  7  1  0
 28 22  1  0
M  END
>  <AAScore>  (1) 
2634.125843883657

>  <RootName>  (1) 
./4ZLY/04_DeltaGEst/trajectory_01/rank_00/lead_0020

$$$$
