confid_6
     RDKit          3D

 27 31  0  0  0  0  0  0  0  0999 V2000
   24.2000   26.2400   35.6900 N   0  0  0  0  0  0  0  0  0  0  0  0
   24.8500   26.2800   34.4800 C   0  0  0  0  0  0  0  0  0  0  0  0
   24.3100   25.7400   33.5400 O   0  0  0  0  0  0  0  0  0  0  0  0
   26.1800   26.9700   34.4700 C   0  0  0  0  0  0  0  0  0  0  0  0
   26.6500   27.6000   35.5500 N   0  0  0  0  0  0  0  0  0  0  0  0
   27.7900   28.2700   35.6200 N   0  0  0  0  0  0  0  0  0  0  0  0
   28.5400   28.3000   34.5100 C   0  0  0  0  0  0  0  0  0  0  0  0
   29.7700   28.9400   34.5600 C   0  0  0  0  0  0  0  0  0  0  0  0
   30.7000   28.8900   33.5000 C   0  0  0  0  0  0  0  0  0  0  0  0
   30.3700   28.1400   32.3700 C   0  0  0  0  0  0  0  0  0  0  0  0
   29.1200   27.5200   32.2800 C   0  0  0  0  0  0  0  0  0  0  0  0
   28.2100   27.6100   33.3300 C   0  0  0  0  0  0  0  0  0  0  0  0
   26.9700   26.9700   33.3100 C   0  0  0  0  0  0  0  0  0  0  0  0
   26.5300   26.2400   32.2200 N   0  0  0  0  0  0  0  0  0  0  0  0
   22.7953   25.9705   35.8777 C   0  0  0  0  0  0  0  0  0  0  0  0
   22.0426   25.6312   34.8645 N   0  0  0  0  0  0  0  0  0  0  0  0
   20.6470   25.3200   34.9481 C   0  0  0  0  0  0  0  0  0  0  0  0
   19.7887   26.2016   35.4433 C   0  0  0  0  0  0  0  0  0  0  0  0
   18.3601   26.2858   35.8875 C   0  0  0  0  0  0  0  0  0  0  0  0
   18.4515   27.5944   36.3558 O   0  0  0  0  0  0  0  0  0  0  0  0
   19.7733   27.6278   35.9189 C   0  0  1  0  0  0  0  0  0  0  0  0
   20.7646   27.9764   37.0505 C   0  0  0  0  0  0  0  0  0  0  0  0
   21.3580   26.7881   37.7626 C   0  0  0  0  0  0  0  0  0  0  0  0
   22.2679   25.9620   37.2631 C   0  0  0  0  0  0  0  0  0  0  0  0
   22.7101   25.0679   38.2175 O   0  0  0  0  0  0  0  0  0  0  0  0
   22.0472   25.2781   39.4547 C   0  0  0  0  0  0  0  0  0  0  0  0
   21.1138   26.4710   39.1992 C   0  0  0  0  0  0  0  0  0  0  0  0
  1  2  1  0
  2  3  2  0
  2  4  1  0
  4  5  2  0
  5  6  1  0
  6  7  2  0
  7  8  1  0
  8  9  2  0
  9 10  1  0
 10 11  2  0
 11 12  1  0
 12 13  2  0
 13 14  1  0
  1 15  1  0
 15 16  2  0
 16 17  1  0
 17 18  2  0
 18 19  1  0
 19 20  1  0
 20 21  1  0
 21 22  1  1
 22 23  1  0
 23 24  2  0
 24 25  1  0
 25 26  1  0
 26 27  1  0
 13  4  1  0
 24 15  1  0
 12  7  1  0
 21 18  1  0
 27 23  1  0
M  END
>  <AAScore>  (1) 
1426.0326188431443

>  <RootName>  (1) 
./4ZLY/04_DeltaGEst/trajectory_04/rank_00/lead_0135

$$$$
