confid_5
     RDKit          3D

 30 34  0  0  0  0  0  0  0  0999 V2000
   24.2000   26.2400   35.6900 N   0  0  0  0  0  0  0  0  0  0  0  0
   24.8500   26.2800   34.4800 C   0  0  0  0  0  0  0  0  0  0  0  0
   24.3100   25.7400   33.5400 O   0  0  0  0  0  0  0  0  0  0  0  0
   26.1800   26.9700   34.4700 C   0  0  0  0  0  0  0  0  0  0  0  0
   26.6500   27.6000   35.5500 N   0  0  0  0  0  0  0  0  0  0  0  0
   27.7900   28.2700   35.6200 N   0  0  0  0  0  0  0  0  0  0  0  0
   28.5400   28.3000   34.5100 C   0  0  0  0  0  0  0  0  0  0  0  0
   29.7700   28.9400   34.5600 C   0  0  0  0  0  0  0  0  0  0  0  0
   30.7000   28.8900   33.5000 C   0  0  0  0  0  0  0  0  0  0  0  0
   30.3700   28.1400   32.3700 C   0  0  0  0  0  0  0  0  0  0  0  0
   29.1200   27.5200   32.2800 C   0  0  0  0  0  0  0  0  0  0  0  0
   28.2100   27.6100   33.3300 C   0  0  0  0  0  0  0  0  0  0  0  0
   26.9700   26.9700   33.3100 C   0  0  0  0  0  0  0  0  0  0  0  0
   26.5300   26.2400   32.2200 N   0  0  0  0  0  0  0  0  0  0  0  0
   23.0460   25.4242   35.9803 C   0  0  0  0  0  0  0  0  0  0  0  0
   22.9207   24.2846   35.3440 N   0  0  0  0  0  0  0  0  0  0  0  0
   21.9318   23.2683   35.5241 C   0  0  0  0  0  0  0  0  0  0  0  0
   21.8194   22.6200   36.6881 C   0  0  0  0  0  0  0  0  0  0  0  0
   22.5391   23.1443   37.8824 C   0  0  0  0  0  0  0  0  0  0  0  0
   21.5218   24.0128   38.4351 N   0  0  0  0  0  0  0  0  0  0  0  0
   20.3179   23.2626   38.2296 C   0  0  0  0  0  0  0  0  0  0  0  0
   19.2488   23.4886   38.8555 O   0  0  0  0  0  0  0  0  0  0  0  0
   20.4550   22.2339   37.1643 C   0  0  0  0  0  0  0  0  0  0  0  0
   21.4639   25.4183   38.1199 C   0  0  0  0  0  0  0  0  0  0  0  0
   20.6933   26.2158   38.9858 C   0  0  0  0  0  0  0  0  0  0  0  0
   20.4407   27.5548   38.7073 C   0  0  0  0  0  0  0  0  0  0  0  0
   20.9538   28.1318   37.5530 C   0  0  0  0  0  0  0  0  0  0  0  0
   20.7081   29.4363   37.2821 F   0  0  0  0  0  0  0  0  0  0  0  0
   21.7329   27.3753   36.6808 C   0  0  0  0  0  0  0  0  0  0  0  0
   22.0239   26.0152   36.9293 C   0  0  0  0  0  0  0  0  0  0  0  0
  1  2  1  0
  2  3  2  0
  2  4  1  0
  4  5  2  0
  5  6  1  0
  6  7  2  0
  7  8  1  0
  8  9  2  0
  9 10  1  0
 10 11  2  0
 11 12  1  0
 12 13  2  0
 13 14  1  0
  1 15  1  0
 15 16  2  0
 16 17  1  0
 17 18  2  0
 18 19  1  0
 19 20  1  0
 20 21  1  0
 21 22  2  0
 21 23  1  0
 20 24  1  0
 24 25  2  0
 25 26  1  0
 26 27  2  0
 27 28  1  0
 27 29  1  0
 29 30  2  0
 13  4  1  0
 30 15  1  0
 12  7  1  0
 23 18  1  0
 30 24  1  0
M  END
>  <AAScore>  (1) 
3200.4972119086883

>  <RootName>  (1) 
./4ZLY/04_DeltaGEst/trajectory_04/rank_00/lead_0089

$$$$
