confid_15
     RDKit          3D

 30 33  0  0  0  0  0  0  0  0999 V2000
   24.5500   26.3900   36.2500 N   0  0  0  0  0  0  0  0  0  0  0  0
   25.6000   26.1300   35.4000 C   0  0  0  0  0  0  0  0  0  0  0  0
   25.4300   25.4300   34.4200 O   0  0  0  0  0  0  0  0  0  0  0  0
   26.9800   26.6300   35.7100 C   0  0  0  0  0  0  0  0  0  0  0  0
   27.3200   26.8200   36.9800 N   0  0  0  0  0  0  0  0  0  0  0  0
   28.4700   27.4000   37.3100 N   0  0  0  0  0  0  0  0  0  0  0  0
   29.4000   27.6300   36.3700 C   0  0  0  0  0  0  0  0  0  0  0  0
   30.6600   28.0500   36.8000 C   0  0  0  0  0  0  0  0  0  0  0  0
   31.5700   28.3600   35.7800 C   0  0  0  0  0  0  0  0  0  0  0  0
   31.3700   28.1000   34.4300 C   0  0  0  0  0  0  0  0  0  0  0  0
   30.1200   27.5900   34.0500 C   0  0  0  0  0  0  0  0  0  0  0  0
   29.1500   27.3400   35.0300 C   0  0  0  0  0  0  0  0  0  0  0  0
   27.8800   26.8900   34.6600 C   0  0  0  0  0  0  0  0  0  0  0  0
   27.4800   26.6100   33.3700 N   0  0  0  0  0  0  0  0  0  0  0  0
   30.9687   28.3175   38.1801 N   0  0  0  0  0  0  0  0  0  0  0  0
   32.0267   27.5070   38.8045 C   0  0  0  0  0  0  0  0  0  0  0  0
   32.3500   27.8888   40.2559 C   0  0  0  0  0  0  0  0  0  0  0  0
   31.1672   27.6662   41.2066 C   0  0  0  0  0  0  0  0  0  0  0  0
   30.2937   28.8566   41.2577 N   0  0  0  0  0  0  0  0  0  0  0  0
   29.4737   29.0063   40.0392 C   0  0  0  0  0  0  0  0  0  0  0  0
   30.3224   29.4583   38.8455 C   0  0  0  0  0  0  0  0  0  0  0  0
   29.4664   28.8881   42.4893 C   0  0  0  0  0  0  0  0  0  0  0  0
   28.4714   27.7448   42.5880 C   0  0  0  0  0  0  0  0  0  0  0  0
   28.8612   26.5210   43.1614 C   0  0  0  0  0  0  0  0  0  0  0  0
   27.9601   25.4555   43.2391 C   0  0  0  0  0  0  0  0  0  0  0  0
   26.6585   25.6020   42.7546 C   0  0  0  0  0  0  0  0  0  0  0  0
   25.7858   24.5673   42.8313 F   0  0  0  0  0  0  0  0  0  0  0  0
   26.2536   26.8181   42.1992 C   0  0  0  0  0  0  0  0  0  0  0  0
   27.1500   27.8889   42.1187 C   0  0  0  0  0  0  0  0  0  0  0  0
   26.7212   29.0655   41.5967 F   0  0  0  0  0  0  0  0  0  0  0  0
  1  2  1  0
  2  3  2  0
  2  4  1  0
  4  5  2  0
  5  6  1  0
  6  7  2  0
  7  8  1  0
  8  9  2  0
  9 10  1  0
 10 11  2  0
 11 12  1  0
 12 13  2  0
 13 14  1  0
  8 15  1  0
 15 16  1  0
 16 17  1  0
 17 18  1  0
 18 19  1  0
 19 20  1  0
 20 21  1  0
 19 22  1  0
 22 23  1  0
 23 24  2  0
 24 25  1  0
 25 26  2  0
 26 27  1  0
 26 28  1  0
 28 29  2  0
 29 30  1  0
 13  4  1  0
 21 15  1  0
 29 23  1  0
 12  7  1  0
M  END
>  <AAScore>  (1) 
373.3009850024713

>  <RootName>  (1) 
./4ZLY/04_DeltaGEst/trajectory_01/rank_01/lead_0341

$$$$
