confid_19
     RDKit          3D

 27 30  0  0  0  0  0  0  0  0999 V2000
   24.5700   26.8800   35.5900 N   0  0  0  0  0  0  0  0  0  0  0  0
   25.5000   26.4000   34.6900 C   0  0  0  0  0  0  0  0  0  0  0  0
   25.1700   25.5200   33.9100 O   0  0  0  0  0  0  0  0  0  0  0  0
   26.8400   27.0200   34.7400 C   0  0  0  0  0  0  0  0  0  0  0  0
   27.3800   27.2800   35.9400 N   0  0  0  0  0  0  0  0  0  0  0  0
   28.6200   27.7400   36.0300 N   0  0  0  0  0  0  0  0  0  0  0  0
   29.3800   28.0000   34.9600 C   0  0  0  0  0  0  0  0  0  0  0  0
   30.6700   28.5000   35.1300 C   0  0  0  0  0  0  0  0  0  0  0  0
   31.5400   28.6100   34.0300 C   0  0  0  0  0  0  0  0  0  0  0  0
   31.0900   28.2200   32.7700 C   0  0  0  0  0  0  0  0  0  0  0  0
   29.8000   27.7000   32.6000 C   0  0  0  0  0  0  0  0  0  0  0  0
   28.9600   27.5500   33.7100 C   0  0  0  0  0  0  0  0  0  0  0  0
   27.6600   27.0300   33.5900 C   0  0  0  0  0  0  0  0  0  0  0  0
   27.1600   26.7400   32.3400 N   0  0  0  0  0  0  0  0  0  0  0  0
   32.8780   29.1117   34.2046 N   0  0  0  0  0  0  0  0  0  0  0  0
   33.7603   28.4900   35.2024 C   0  0  0  0  0  0  0  0  0  0  0  0
   35.1785   29.0773   35.1572 C   0  0  0  0  0  0  0  0  0  0  0  0
   35.6465   29.2164   33.7670 N   0  0  0  0  0  0  0  0  0  0  0  0
   37.0460   29.0163   33.4598 C   0  0  0  0  0  0  0  0  0  0  0  0
   37.4887   28.8333   32.1351 C   0  0  0  0  0  0  0  0  0  0  0  0
   38.8491   28.6460   31.8815 C   0  0  0  0  0  0  0  0  0  0  0  0
   39.7595   28.6401   32.9379 C   0  0  0  0  0  0  0  0  0  0  0  0
   41.0822   28.4583   32.7021 F   0  0  0  0  0  0  0  0  0  0  0  0
   39.2934   28.8210   34.2401 C   0  0  0  0  0  0  0  0  0  0  0  0
   37.9656   29.0023   34.4681 N   0  0  0  0  0  0  0  0  0  0  0  0
   34.7304   29.7421   32.7375 C   0  0  0  0  0  0  0  0  0  0  0  0
   33.3950   30.1790   33.3417 C   0  0  0  0  0  0  0  0  0  0  0  0
  1  2  1  0
  2  3  2  0
  2  4  1  0
  4  5  2  0
  5  6  1  0
  6  7  2  0
  7  8  1  0
  8  9  2  0
  9 10  1  0
 10 11  2  0
 11 12  1  0
 12 13  2  0
 13 14  1  0
  9 15  1  0
 15 16  1  0
 16 17  1  0
 17 18  1  0
 18 19  1  0
 19 20  2  0
 20 21  1  0
 21 22  2  0
 22 23  1  0
 22 24  1  0
 24 25  2  0
 18 26  1  0
 26 27  1  0
 13  4  1  0
 27 15  1  0
 12  7  1  0
 25 19  1  0
M  END
>  <AAScore>  (1) 
-6.281351880798308

>  <RootName>  (1) 
./4ZLY/04_DeltaGEst/trajectory_05/rank_01/lead_0188

$$$$
