confid_19
     RDKit          3D

 28 31  0  0  0  0  0  0  0  0999 V2000
   24.5700   26.8800   35.5900 N   0  0  0  0  0  0  0  0  0  0  0  0
   25.5000   26.4000   34.6900 C   0  0  0  0  0  0  0  0  0  0  0  0
   25.1700   25.5200   33.9100 O   0  0  0  0  0  0  0  0  0  0  0  0
   26.8400   27.0200   34.7400 C   0  0  0  0  0  0  0  0  0  0  0  0
   27.3800   27.2800   35.9400 N   0  0  0  0  0  0  0  0  0  0  0  0
   28.6200   27.7400   36.0300 N   0  0  0  0  0  0  0  0  0  0  0  0
   29.3800   28.0000   34.9600 C   0  0  0  0  0  0  0  0  0  0  0  0
   30.6700   28.5000   35.1300 C   0  0  0  0  0  0  0  0  0  0  0  0
   31.5400   28.6100   34.0300 C   0  0  0  0  0  0  0  0  0  0  0  0
   31.0900   28.2200   32.7700 C   0  0  0  0  0  0  0  0  0  0  0  0
   29.8000   27.7000   32.6000 C   0  0  0  0  0  0  0  0  0  0  0  0
   28.9600   27.5500   33.7100 C   0  0  0  0  0  0  0  0  0  0  0  0
   27.6600   27.0300   33.5900 C   0  0  0  0  0  0  0  0  0  0  0  0
   27.1600   26.7400   32.3400 N   0  0  0  0  0  0  0  0  0  0  0  0
   23.1877   26.4755   35.6076 C   0  0  0  0  0  0  0  0  0  0  0  0
   22.5616   25.9467   34.5325 N   0  0  0  0  0  0  0  0  0  0  0  0
   21.2871   25.7831   34.9353 C   0  0  0  0  0  0  0  0  0  0  0  0
   21.1600   26.2138   36.2382 C   0  0  0  0  0  0  0  0  0  0  0  0
   19.8718   26.3316   36.9966 C   0  0  0  0  0  0  0  0  0  0  0  0
   19.4278   27.7351   37.0008 N   0  0  0  0  0  0  0  0  0  0  0  0
   19.4581   28.5343   38.2422 C   0  0  0  0  0  0  0  0  0  0  0  0
   20.7060   28.3095   39.1153 C   0  0  0  0  0  0  0  0  0  0  0  0
   22.0419   28.4577   38.3547 C   0  0  0  0  0  0  0  0  0  0  0  0
   22.7004   27.1065   38.0191 C   0  0  0  0  0  0  0  0  0  0  0  0
   22.3589   26.6569   36.6646 N   0  0  0  0  0  0  0  0  0  0  0  0
   18.7536   28.2465   35.8233 C   0  0  0  0  0  0  0  0  0  0  0  0
   18.7895   27.5945   34.7443 O   0  0  0  0  0  0  0  0  0  0  0  0
   18.0075   29.5483   35.8341 C   0  0  0  0  0  0  0  0  0  0  0  0
  1  2  1  0
  2  3  2  0
  2  4  1  0
  4  5  2  0
  5  6  1  0
  6  7  2  0
  7  8  1  0
  8  9  2  0
  9 10  1  0
 10 11  2  0
 11 12  1  0
 12 13  2  0
 13 14  1  0
  1 15  1  0
 15 16  2  0
 16 17  1  0
 17 18  2  0
 18 19  1  0
 19 20  1  0
 20 21  1  0
 21 22  1  0
 22 23  1  0
 23 24  1  0
 24 25  1  0
 20 26  1  0
 26 27  2  0
 26 28  1  0
 13  4  1  0
 25 15  1  0
 12  7  1  0
 25 18  1  0
M  END
>  <AAScore>  (1) 
2608.9237004513634

>  <RootName>  (1) 
./4ZLY/04_DeltaGEst/trajectory_05/rank_00/lead_0122

$$$$
