confid_11
     RDKit          3D

 29 33  0  0  0  0  0  0  0  0999 V2000
   24.2000   26.2400   35.6900 N   0  0  0  0  0  0  0  0  0  0  0  0
   24.8500   26.2800   34.4800 C   0  0  0  0  0  0  0  0  0  0  0  0
   24.3100   25.7400   33.5400 O   0  0  0  0  0  0  0  0  0  0  0  0
   26.1800   26.9700   34.4700 C   0  0  0  0  0  0  0  0  0  0  0  0
   26.6500   27.6000   35.5500 N   0  0  0  0  0  0  0  0  0  0  0  0
   27.7900   28.2700   35.6200 N   0  0  0  0  0  0  0  0  0  0  0  0
   28.5400   28.3000   34.5100 C   0  0  0  0  0  0  0  0  0  0  0  0
   29.7700   28.9400   34.5600 C   0  0  0  0  0  0  0  0  0  0  0  0
   30.7000   28.8900   33.5000 C   0  0  0  0  0  0  0  0  0  0  0  0
   30.3700   28.1400   32.3700 C   0  0  0  0  0  0  0  0  0  0  0  0
   29.1200   27.5200   32.2800 C   0  0  0  0  0  0  0  0  0  0  0  0
   28.2100   27.6100   33.3300 C   0  0  0  0  0  0  0  0  0  0  0  0
   26.9700   26.9700   33.3100 C   0  0  0  0  0  0  0  0  0  0  0  0
   26.5300   26.2400   32.2200 N   0  0  0  0  0  0  0  0  0  0  0  0
   23.2653   25.2057   36.0642 C   0  0  0  0  0  0  0  0  0  0  0  0
   23.3880   24.0423   35.4771 N   0  0  0  0  0  0  0  0  0  0  0  0
   22.7053   22.7773   35.4877 C   0  0  0  0  0  0  0  0  0  0  0  0
   21.4282   22.6135   35.8020 C   0  0  0  0  0  0  0  0  0  0  0  0
   20.3126   21.7167   35.3447 C   0  0  0  0  0  0  0  0  0  0  0  0
   19.3026   22.4593   35.9472 O   0  0  0  0  0  0  0  0  0  0  0  0
   20.2883   23.2585   36.5144 C   0  0  2  0  0  0  0  0  0  0  0  0
   20.1679   24.7404   36.1798 C   0  0  0  0  0  0  0  0  0  0  0  0
   21.0116   25.4669   37.1861 C   0  0  0  0  0  0  0  0  0  0  0  0
   22.3396   25.5018   37.1954 C   0  0  0  0  0  0  0  0  0  0  0  0
   22.7962   26.2290   38.4199 C   0  0  0  0  0  0  0  0  0  0  0  0
   21.6384   26.2744   39.3319 N   0  0  0  0  0  0  0  0  0  0  0  0
   20.4790   26.1472   38.4143 C   0  0  2  0  0  0  0  0  0  0  0  0
   19.2200   25.5017   39.0326 C   0  0  0  0  0  0  0  0  0  0  0  0
   21.7473   25.1814   40.3208 C   0  0  0  0  0  0  0  0  0  0  0  0
  1  2  1  0
  2  3  2  0
  2  4  1  0
  4  5  2  0
  5  6  1  0
  6  7  2  0
  7  8  1  0
  8  9  2  0
  9 10  1  0
 10 11  2  0
 11 12  1  0
 12 13  2  0
 13 14  1  0
  1 15  1  0
 15 16  2  0
 16 17  1  0
 17 18  2  0
 18 19  1  0
 19 20  1  0
 20 21  1  0
 21 22  1  6
 22 23  1  0
 23 24  2  0
 24 25  1  0
 25 26  1  0
 26 27  1  0
 27 28  1  1
 26 29  1  0
 13  4  1  0
 24 15  1  0
 12  7  1  0
 21 18  1  0
 27 23  1  0
M  END
>  <AAScore>  (1) 
6536.839271152094

>  <RootName>  (1) 
./4ZLY/04_DeltaGEst/trajectory_04/rank_00/lead_0347

$$$$
