confid_1
     RDKit          3D

 27 31  0  0  0  0  0  0  0  0999 V2000
   24.2000   26.2400   35.6900 N   0  0  0  0  0  0  0  0  0  0  0  0
   24.8500   26.2800   34.4800 C   0  0  0  0  0  0  0  0  0  0  0  0
   24.3100   25.7400   33.5400 O   0  0  0  0  0  0  0  0  0  0  0  0
   26.1800   26.9700   34.4700 C   0  0  0  0  0  0  0  0  0  0  0  0
   26.6500   27.6000   35.5500 N   0  0  0  0  0  0  0  0  0  0  0  0
   27.7900   28.2700   35.6200 N   0  0  0  0  0  0  0  0  0  0  0  0
   28.5400   28.3000   34.5100 C   0  0  0  0  0  0  0  0  0  0  0  0
   29.7700   28.9400   34.5600 C   0  0  0  0  0  0  0  0  0  0  0  0
   30.7000   28.8900   33.5000 C   0  0  0  0  0  0  0  0  0  0  0  0
   30.3700   28.1400   32.3700 C   0  0  0  0  0  0  0  0  0  0  0  0
   29.1200   27.5200   32.2800 C   0  0  0  0  0  0  0  0  0  0  0  0
   28.2100   27.6100   33.3300 C   0  0  0  0  0  0  0  0  0  0  0  0
   26.9700   26.9700   33.3100 C   0  0  0  0  0  0  0  0  0  0  0  0
   26.5300   26.2400   32.2200 N   0  0  0  0  0  0  0  0  0  0  0  0
   30.1399   29.6645   35.7471 N   0  0  0  0  0  0  0  0  0  0  0  0
   31.3552   29.2747   36.4917 C   0  0  0  0  0  0  0  0  0  0  0  0
   31.2074   29.5297   38.0076 C   0  0  0  0  0  0  0  0  0  0  0  0
   30.6527   30.9013   38.2642 C   0  0  0  0  0  0  0  0  0  0  0  0
   29.7936   31.5179   37.3670 C   0  0  0  0  0  0  0  0  0  0  0  0
   29.2067   32.9812   38.0038 S   0  0  0  0  0  0  0  0  0  0  0  0
   30.0815   32.8003   39.4299 C   0  0  0  0  0  0  0  0  0  0  0  0
   30.1546   33.5459   40.6958 C   0  0  0  0  0  0  0  0  0  0  0  0
   31.0836   32.6515   41.5572 C   0  0  0  0  0  0  0  0  0  0  0  0
   31.4590   31.3995   40.7200 C   0  0  0  0  0  0  0  0  0  0  0  0
   30.7811   31.6485   39.4325 C   0  0  0  0  0  0  0  0  0  0  0  0
   29.4636   30.8887   36.0926 C   0  0  0  0  0  0  0  0  0  0  0  0
   28.6063   31.4029   35.3232 O   0  0  0  0  0  0  0  0  0  0  0  0
  1  2  1  0
  2  3  2  0
  2  4  1  0
  4  5  2  0
  5  6  1  0
  6  7  2  0
  7  8  1  0
  8  9  2  0
  9 10  1  0
 10 11  2  0
 11 12  1  0
 12 13  2  0
 13 14  1  0
  8 15  1  0
 15 16  1  0
 16 17  1  0
 17 18  1  0
 18 19  2  0
 19 20  1  0
 20 21  1  0
 21 22  1  0
 22 23  1  0
 23 24  1  0
 24 25  1  0
 19 26  1  0
 26 27  2  0
 13  4  1  0
 26 15  1  0
 12  7  1  0
 25 18  1  0
 25 21  2  0
M  END
>  <AAScore>  (1) 
-5.567948891546278

>  <RootName>  (1) 
./4ZLY/04_DeltaGEst/trajectory_04/rank_01/lead_0392

$$$$
