confid_4
     RDKit          3D

 28 31  0  0  0  0  0  0  0  0999 V2000
   24.5500   26.3900   36.2500 N   0  0  0  0  0  0  0  0  0  0  0  0
   25.6000   26.1300   35.4000 C   0  0  0  0  0  0  0  0  0  0  0  0
   25.4300   25.4300   34.4200 O   0  0  0  0  0  0  0  0  0  0  0  0
   26.9800   26.6300   35.7100 C   0  0  0  0  0  0  0  0  0  0  0  0
   27.3200   26.8200   36.9800 N   0  0  0  0  0  0  0  0  0  0  0  0
   28.4700   27.4000   37.3100 N   0  0  0  0  0  0  0  0  0  0  0  0
   29.4000   27.6300   36.3700 C   0  0  0  0  0  0  0  0  0  0  0  0
   30.6600   28.0500   36.8000 C   0  0  0  0  0  0  0  0  0  0  0  0
   31.5700   28.3600   35.7800 C   0  0  0  0  0  0  0  0  0  0  0  0
   31.3700   28.1000   34.4300 C   0  0  0  0  0  0  0  0  0  0  0  0
   30.1200   27.5900   34.0500 C   0  0  0  0  0  0  0  0  0  0  0  0
   29.1500   27.3400   35.0300 C   0  0  0  0  0  0  0  0  0  0  0  0
   27.8800   26.8900   34.6600 C   0  0  0  0  0  0  0  0  0  0  0  0
   27.4800   26.6100   33.3700 N   0  0  0  0  0  0  0  0  0  0  0  0
   23.1931   25.8630   36.0262 C   0  0  0  0  0  0  0  0  0  0  0  0
   23.1334   24.3714   36.3933 C   0  0  0  0  0  0  0  0  0  0  0  0
   23.4705   24.1716   37.8762 C   0  0  0  0  0  0  0  0  0  0  0  0
   22.8231   25.1858   38.7245 N   0  0  0  0  0  0  0  0  0  0  0  0
   22.9777   25.0892   40.1497 C   0  0  0  0  0  0  0  0  0  0  0  0
   21.9569   25.1299   40.8899 O   0  0  0  0  0  0  0  0  0  0  0  0
   24.3143   24.9883   40.7640 C   0  0  0  0  0  0  0  0  0  0  0  0
   25.4374   25.4879   40.2100 N   0  0  0  0  0  0  0  0  0  0  0  0
   26.4445   25.2412   41.0688 C   0  0  0  0  0  0  0  0  0  0  0  0
   25.9690   24.5847   42.1879 C   0  0  0  0  0  0  0  0  0  0  0  0
   24.6121   24.4276   41.9957 C   0  0  0  0  0  0  0  0  0  0  0  0
   23.5220   23.5896   43.0850 Cl  0  0  0  0  0  0  0  0  0  0  0  0
   21.7490   26.0263   38.1786 C   0  0  0  0  0  0  0  0  0  0  0  0
   22.1459   26.6712   36.8336 C   0  0  0  0  0  0  0  0  0  0  0  0
  1  2  1  0
  2  3  2  0
  2  4  1  0
  4  5  2  0
  5  6  1  0
  6  7  2  0
  7  8  1  0
  8  9  2  0
  9 10  1  0
 10 11  2  0
 11 12  1  0
 12 13  2  0
 13 14  1  0
  1 15  1  0
 15 16  1  0
 16 17  1  0
 17 18  1  0
 18 19  1  0
 19 20  2  0
 19 21  1  0
 21 22  1  0
 22 23  1  0
 23 24  2  0
 24 25  1  0
 25 26  1  0
 18 27  1  0
 27 28  1  0
 13  4  1  0
 28 15  1  0
 12  7  1  0
 25 21  2  0
M  END
>  <AAScore>  (1) 
1406.6244956853748

>  <RootName>  (1) 
./4ZLY/04_DeltaGEst/trajectory_01/rank_00/lead_0245

$$$$
