confid_10
     RDKit          3D

 29 32  0  0  0  0  0  0  0  0999 V2000
   24.6900   26.1200   35.5300 N   0  0  0  0  0  0  0  0  0  0  0  0
   25.6600   25.6700   34.6600 C   0  0  0  0  0  0  0  0  0  0  0  0
   25.2400   25.0100   33.7200 O   0  0  0  0  0  0  0  0  0  0  0  0
   27.0300   26.2200   34.8800 C   0  0  0  0  0  0  0  0  0  0  0  0
   27.3500   26.7300   36.0700 N   0  0  0  0  0  0  0  0  0  0  0  0
   28.5700   27.1800   36.3300 N   0  0  0  0  0  0  0  0  0  0  0  0
   29.5300   27.1100   35.3900 C   0  0  0  0  0  0  0  0  0  0  0  0
   30.8300   27.5700   35.6500 C   0  0  0  0  0  0  0  0  0  0  0  0
   31.8500   27.5400   34.6900 C   0  0  0  0  0  0  0  0  0  0  0  0
   31.5100   27.1200   33.4000 C   0  0  0  0  0  0  0  0  0  0  0  0
   30.2200   26.6300   33.1100 C   0  0  0  0  0  0  0  0  0  0  0  0
   29.2400   26.6600   34.1000 C   0  0  0  0  0  0  0  0  0  0  0  0
   27.9300   26.2600   33.8100 C   0  0  0  0  0  0  0  0  0  0  0  0
   27.5200   25.7100   32.6100 N   0  0  0  0  0  0  0  0  0  0  0  0
   31.1473   28.0692   36.9586 N   0  0  0  0  0  0  0  0  0  0  0  0
   31.3794   29.5137   37.1246 C   0  0  0  0  0  0  0  0  0  0  0  0
   31.8894   29.8697   38.5287 C   0  0  0  0  0  0  0  0  0  0  0  0
   31.1202   29.1201   39.5892 C   0  0  0  0  0  0  0  0  0  0  0  0
   30.7546   29.7182   40.8146 C   0  0  0  0  0  0  0  0  0  0  0  0
   31.0844   31.0883   41.0824 N   0  0  0  0  0  0  0  0  0  0  0  0
   30.0894   32.1362   40.8627 C   0  0  0  0  0  0  0  0  0  0  0  0
   32.3648   31.4040   41.7104 C   0  0  0  0  0  0  0  0  0  0  0  0
   30.0707   28.9694   41.7884 C   0  0  0  0  0  0  0  0  0  0  0  0
   29.7805   27.6150   41.5411 C   0  0  0  0  0  0  0  0  0  0  0  0
   30.1653   27.0175   40.3407 C   0  0  0  0  0  0  0  0  0  0  0  0
   30.8256   27.7661   39.3603 C   0  0  0  0  0  0  0  0  0  0  0  0
   31.2807   27.1249   38.0775 C   0  0  0  0  0  0  0  0  0  0  0  0
   29.7046   29.6027   42.9871 O   0  0  0  0  0  0  0  0  0  0  0  0
   28.9971   28.9718   44.0495 C   0  0  0  0  0  0  0  0  0  0  0  0
  1  2  1  0
  2  3  2  0
  2  4  1  0
  4  5  2  0
  5  6  1  0
  6  7  2  0
  7  8  1  0
  8  9  2  0
  9 10  1  0
 10 11  2  0
 11 12  1  0
 12 13  2  0
 13 14  1  0
  8 15  1  0
 15 16  1  0
 16 17  1  0
 17 18  1  0
 18 19  2  0
 19 20  1  0
 20 21  1  0
 20 22  1  0
 19 23  1  0
 23 24  2  0
 24 25  1  0
 25 26  2  0
 26 27  1  0
 23 28  1  0
 28 29  1  0
 13  4  1  0
 27 15  1  0
 12  7  1  0
 26 18  1  0
M  END
>  <AAScore>  (1) 
1.9787503865344087

>  <RootName>  (1) 
./4ZLY/04_DeltaGEst/trajectory_02/rank_01/lead_0265

$$$$
