confid_17
     RDKit          3D

 29 33  0  0  0  0  0  0  0  0999 V2000
   25.3300   26.2600   34.7600 N   0  0  0  0  0  0  0  0  0  0  0  0
   26.1200   25.9200   33.6900 C   0  0  0  0  0  0  0  0  0  0  0  0
   25.6300   25.1100   32.9400 O   0  0  0  0  0  0  0  0  0  0  0  0
   27.5200   26.3800   33.4600 C   0  0  0  0  0  0  0  0  0  0  0  0
   28.1600   26.6300   34.6100 N   0  0  0  0  0  0  0  0  0  0  0  0
   29.4800   26.8500   34.5700 N   0  0  0  0  0  0  0  0  0  0  0  0
   30.1900   26.7800   33.4400 C   0  0  0  0  0  0  0  0  0  0  0  0
   31.5600   27.0500   33.5000 C   0  0  0  0  0  0  0  0  0  0  0  0
   32.2700   27.2400   32.3100 C   0  0  0  0  0  0  0  0  0  0  0  0
   31.6100   27.2500   31.0800 C   0  0  0  0  0  0  0  0  0  0  0  0
   30.2700   26.8700   31.0600 C   0  0  0  0  0  0  0  0  0  0  0  0
   29.5100   26.6900   32.2300 C   0  0  0  0  0  0  0  0  0  0  0  0
   28.1400   26.4100   32.2000 C   0  0  0  0  0  0  0  0  0  0  0  0
   27.4300   26.1300   31.0500 N   0  0  0  0  0  0  0  0  0  0  0  0
   24.0126   25.7337   34.9998 C   0  0  0  0  0  0  0  0  0  0  0  0
   23.7843   24.4573   34.8359 N   0  0  0  0  0  0  0  0  0  0  0  0
   22.5093   23.8307   35.0201 C   0  0  0  0  0  0  0  0  0  0  0  0
   21.4620   24.2356   34.3124 C   0  0  0  0  0  0  0  0  0  0  0  0
   19.9644   24.1511   34.3335 C   0  0  0  0  0  0  0  0  0  0  0  0
   19.7735   25.0837   33.3146 O   0  0  0  0  0  0  0  0  0  0  0  0
   21.1545   25.1627   33.1668 C   0  0  1  0  0  0  0  0  0  0  0  0
   21.6968   26.5979   33.3120 C   0  0  0  0  0  0  0  0  0  0  0  0
   21.8586   27.0487   34.7460 C   0  0  0  0  0  0  0  0  0  0  0  0
   20.8836   27.8665   35.3282 C   0  0  0  0  0  0  0  0  0  0  0  0
   21.0322   28.3047   36.6488 C   0  0  0  0  0  0  0  0  0  0  0  0
   22.1645   27.9220   37.3777 C   0  0  0  0  0  0  0  0  0  0  0  0
   23.0933   27.1074   36.8022 N   0  0  0  0  0  0  0  0  0  0  0  0
   22.9692   26.6463   35.5275 C   0  0  0  0  0  0  0  0  0  0  0  0
   22.3333   28.3486   38.8024 C   0  0  0  0  0  0  0  0  0  0  0  0
  1  2  1  0
  2  3  2  0
  2  4  1  0
  4  5  2  0
  5  6  1  0
  6  7  2  0
  7  8  1  0
  8  9  2  0
  9 10  1  0
 10 11  2  0
 11 12  1  0
 12 13  2  0
 13 14  1  0
  1 15  1  0
 15 16  2  0
 16 17  1  0
 17 18  2  0
 18 19  1  0
 19 20  1  0
 20 21  1  0
 21 22  1  1
 22 23  1  0
 23 24  2  0
 24 25  1  0
 25 26  2  0
 26 27  1  0
 27 28  2  0
 26 29  1  0
 13  4  1  0
 28 15  1  0
 12  7  1  0
 21 18  1  0
 28 23  1  0
M  END
>  <AAScore>  (1) 
6220.787227397648

>  <RootName>  (1) 
./4ZLY/04_DeltaGEst/trajectory_03/rank_00/lead_0133

$$$$
