confid_16
     RDKit          3D

 30 34  0  0  0  0  0  0  0  0999 V2000
   24.5500   26.3900   36.2500 N   0  0  0  0  0  0  0  0  0  0  0  0
   25.6000   26.1300   35.4000 C   0  0  0  0  0  0  0  0  0  0  0  0
   25.4300   25.4300   34.4200 O   0  0  0  0  0  0  0  0  0  0  0  0
   26.9800   26.6300   35.7100 C   0  0  0  0  0  0  0  0  0  0  0  0
   27.3200   26.8200   36.9800 N   0  0  0  0  0  0  0  0  0  0  0  0
   28.4700   27.4000   37.3100 N   0  0  0  0  0  0  0  0  0  0  0  0
   29.4000   27.6300   36.3700 C   0  0  0  0  0  0  0  0  0  0  0  0
   30.6600   28.0500   36.8000 C   0  0  0  0  0  0  0  0  0  0  0  0
   31.5700   28.3600   35.7800 C   0  0  0  0  0  0  0  0  0  0  0  0
   31.3700   28.1000   34.4300 C   0  0  0  0  0  0  0  0  0  0  0  0
   30.1200   27.5900   34.0500 C   0  0  0  0  0  0  0  0  0  0  0  0
   29.1500   27.3400   35.0300 C   0  0  0  0  0  0  0  0  0  0  0  0
   27.8800   26.8900   34.6600 C   0  0  0  0  0  0  0  0  0  0  0  0
   27.4800   26.6100   33.3700 N   0  0  0  0  0  0  0  0  0  0  0  0
   23.1701   26.1050   35.9498 C   0  0  0  0  0  0  0  0  0  0  0  0
   22.8054   26.0622   34.6943 N   0  0  0  0  0  0  0  0  0  0  0  0
   21.5769   25.8748   33.9696 C   0  0  0  0  0  0  0  0  0  0  0  0
   20.3594   26.1093   34.4457 C   0  0  0  0  0  0  0  0  0  0  0  0
   19.0494   26.5524   33.8561 C   0  0  0  0  0  0  0  0  0  0  0  0
   18.4500   26.8376   35.0780 O   0  0  0  0  0  0  0  0  0  0  0  0
   19.5861   26.3388   35.7047 C   0  0  2  0  0  0  0  0  0  0  0  0
   20.2800   27.3392   36.6222 C   0  0  0  0  0  0  0  0  0  0  0  0
   21.1599   26.5309   37.5264 C   0  0  0  0  0  0  0  0  0  0  0  0
   22.2857   25.8268   37.1090 C   0  0  0  0  0  0  0  0  0  0  0  0
   22.6322   24.9964   38.1710 C   0  0  0  0  0  0  0  0  0  0  0  0
   21.7048   25.2146   39.1776 C   0  0  0  0  0  0  0  0  0  0  0  0
   21.6821   24.5313   40.5166 C   0  0  0  0  0  0  0  0  0  0  0  0
   20.7879   26.1193   38.7643 N   0  0  0  0  0  0  0  0  0  0  0  0
   19.5818   26.5373   39.4854 C   0  0  0  0  0  0  0  0  0  0  0  0
   23.8269   24.0882   38.2406 C   0  0  0  0  0  0  0  0  0  0  0  0
  1  2  1  0
  2  3  2  0
  2  4  1  0
  4  5  2  0
  5  6  1  0
  6  7  2  0
  7  8  1  0
  8  9  2  0
  9 10  1  0
 10 11  2  0
 11 12  1  0
 12 13  2  0
 13 14  1  0
  1 15  1  0
 15 16  2  0
 16 17  1  0
 17 18  2  0
 18 19  1  0
 19 20  1  0
 20 21  1  0
 21 22  1  1
 22 23  1  0
 23 24  2  0
 24 25  1  0
 25 26  2  0
 26 27  1  0
 26 28  1  0
 28 29  1  0
 25 30  1  0
 13  4  1  0
 24 15  1  0
 12  7  1  0
 21 18  1  0
 28 23  1  0
M  END
>  <AAScore>  (1) 
352.80891539452176

>  <RootName>  (1) 
./4ZLY/04_DeltaGEst/trajectory_01/rank_00/lead_0097

$$$$
