confid_1
     RDKit          3D

 28 31  0  0  0  0  0  0  0  0999 V2000
   24.5700   26.8800   35.5900 N   0  0  0  0  0  0  0  0  0  0  0  0
   25.5000   26.4000   34.6900 C   0  0  0  0  0  0  0  0  0  0  0  0
   25.1700   25.5200   33.9100 O   0  0  0  0  0  0  0  0  0  0  0  0
   26.8400   27.0200   34.7400 C   0  0  0  0  0  0  0  0  0  0  0  0
   27.3800   27.2800   35.9400 N   0  0  0  0  0  0  0  0  0  0  0  0
   28.6200   27.7400   36.0300 N   0  0  0  0  0  0  0  0  0  0  0  0
   29.3800   28.0000   34.9600 C   0  0  0  0  0  0  0  0  0  0  0  0
   30.6700   28.5000   35.1300 C   0  0  0  0  0  0  0  0  0  0  0  0
   31.5400   28.6100   34.0300 C   0  0  0  0  0  0  0  0  0  0  0  0
   31.0900   28.2200   32.7700 C   0  0  0  0  0  0  0  0  0  0  0  0
   29.8000   27.7000   32.6000 C   0  0  0  0  0  0  0  0  0  0  0  0
   28.9600   27.5500   33.7100 C   0  0  0  0  0  0  0  0  0  0  0  0
   27.6600   27.0300   33.5900 C   0  0  0  0  0  0  0  0  0  0  0  0
   27.1600   26.7400   32.3400 N   0  0  0  0  0  0  0  0  0  0  0  0
   23.1627   26.5895   35.5392 C   0  0  0  0  0  0  0  0  0  0  0  0
   22.4718   26.4571   36.7332 N   0  0  0  0  0  0  0  0  0  0  0  0
   21.1259   26.2013   36.8134 C   0  0  0  0  0  0  0  0  0  0  0  0
   20.4587   26.0916   35.6163 C   0  0  0  0  0  0  0  0  0  0  0  0
   19.1645   25.8499   34.9142 C   0  0  1  0  0  0  0  0  0  0  0  0
   18.1126   26.9243   35.2430 C   0  0  0  0  0  0  0  0  0  0  0  0
   16.9616   26.7972   34.3750 N   0  0  0  0  0  0  0  0  0  0  0  0
   16.1221   25.8255   34.4742 C   0  0  0  0  0  0  0  0  0  0  0  0
   14.9807   25.7160   33.5087 C   0  0  0  0  0  0  0  0  0  0  0  0
   15.1958   24.6432   32.6128 O   0  0  0  0  0  0  0  0  0  0  0  0
   15.9613   25.0758   31.5084 C   0  0  0  0  0  0  0  0  0  0  0  0
   19.8489   26.0298   33.6389 C   0  0  0  0  0  0  0  0  0  0  0  0
   21.1267   26.2413   34.3796 C   0  0  0  0  0  0  0  0  0  0  0  0
   22.4782   26.4976   34.2907 C   0  0  0  0  0  0  0  0  0  0  0  0
  1  2  1  0
  2  3  2  0
  2  4  1  0
  4  5  2  0
  5  6  1  0
  6  7  2  0
  7  8  1  0
  8  9  2  0
  9 10  1  0
 10 11  2  0
 11 12  1  0
 12 13  2  0
 13 14  1  0
  1 15  1  0
 15 16  2  0
 16 17  1  0
 17 18  2  0
 18 19  1  0
 19 20  1  1
 20 21  1  0
 21 22  2  3
 22 23  1  0
 23 24  1  0
 24 25  1  0
 19 26  1  0
 26 27  1  0
 27 28  2  0
 13  4  1  0
 28 15  1  0
 12  7  1  0
 27 18  1  0
M  END
>  <AAScore>  (1) 
3487.268097668159

>  <RootName>  (1) 
./4ZLY/04_DeltaGEst/trajectory_05/rank_00/lead_0282

$$$$
