confid_19
     RDKit          3D

 29 32  0  0  0  0  0  0  0  0999 V2000
   24.2000   26.2400   35.6900 N   0  0  0  0  0  0  0  0  0  0  0  0
   24.8500   26.2800   34.4800 C   0  0  0  0  0  0  0  0  0  0  0  0
   24.3100   25.7400   33.5400 O   0  0  0  0  0  0  0  0  0  0  0  0
   26.1800   26.9700   34.4700 C   0  0  0  0  0  0  0  0  0  0  0  0
   26.6500   27.6000   35.5500 N   0  0  0  0  0  0  0  0  0  0  0  0
   27.7900   28.2700   35.6200 N   0  0  0  0  0  0  0  0  0  0  0  0
   28.5400   28.3000   34.5100 C   0  0  0  0  0  0  0  0  0  0  0  0
   29.7700   28.9400   34.5600 C   0  0  0  0  0  0  0  0  0  0  0  0
   30.7000   28.8900   33.5000 C   0  0  0  0  0  0  0  0  0  0  0  0
   30.3700   28.1400   32.3700 C   0  0  0  0  0  0  0  0  0  0  0  0
   29.1200   27.5200   32.2800 C   0  0  0  0  0  0  0  0  0  0  0  0
   28.2100   27.6100   33.3300 C   0  0  0  0  0  0  0  0  0  0  0  0
   26.9700   26.9700   33.3100 C   0  0  0  0  0  0  0  0  0  0  0  0
   26.5300   26.2400   32.2200 N   0  0  0  0  0  0  0  0  0  0  0  0
   30.1267   29.6856   35.7371 N   0  0  0  0  0  0  0  0  0  0  0  0
   31.2789   29.2674   36.5424 C   0  0  0  0  0  0  0  0  0  0  0  0
   31.0338   29.5632   38.0265 C   0  0  0  0  0  0  0  0  0  0  0  0
   30.6066   30.9945   38.2419 C   0  0  0  0  0  0  0  0  0  0  0  0
   30.8982   31.6287   39.4594 C   0  0  0  0  0  0  0  0  0  0  0  0
   30.4629   32.9424   39.7117 C   0  0  0  0  0  0  0  0  0  0  0  0
   30.7723   33.5960   40.9666 N   0  0  0  0  0  0  0  0  0  0  0  0
   30.9171   35.0549   41.0289 C   0  0  0  0  0  0  0  0  0  0  0  0
   30.9064   32.8089   42.2000 C   0  0  0  0  0  0  0  0  0  0  0  0
   29.7119   33.6058   38.7227 C   0  0  0  0  0  0  0  0  0  0  0  0
   29.3913   32.9727   37.5194 C   0  0  0  0  0  0  0  0  0  0  0  0
   29.8306   31.6604   37.2707 C   0  0  0  0  0  0  0  0  0  0  0  0
   29.5080   30.9541   36.0091 C   0  0  0  0  0  0  0  0  0  0  0  0
   28.7001   31.4528   35.1783 O   0  0  0  0  0  0  0  0  0  0  0  0
   28.6529   33.6495   36.6033 F   0  0  0  0  0  0  0  0  0  0  0  0
  1  2  1  0
  2  3  2  0
  2  4  1  0
  4  5  2  0
  5  6  1  0
  6  7  2  0
  7  8  1  0
  8  9  2  0
  9 10  1  0
 10 11  2  0
 11 12  1  0
 12 13  2  0
 13 14  1  0
  8 15  1  0
 15 16  1  0
 16 17  1  0
 17 18  1  0
 18 19  2  0
 19 20  1  0
 20 21  1  0
 21 22  1  0
 21 23  1  0
 20 24  2  0
 24 25  1  0
 25 26  2  0
 26 27  1  0
 27 28  2  0
 25 29  1  0
 13  4  1  0
 27 15  1  0
 12  7  1  0
 26 18  1  0
M  END
>  <AAScore>  (1) 
-2.4013052536271107

>  <RootName>  (1) 
./4ZLY/04_DeltaGEst/trajectory_04/rank_01/lead_0338

$$$$
