confid_15
     RDKit          3D

 28 31  0  0  0  0  0  0  0  0999 V2000
   24.6900   26.1200   35.5300 N   0  0  0  0  0  0  0  0  0  0  0  0
   25.6600   25.6700   34.6600 C   0  0  0  0  0  0  0  0  0  0  0  0
   25.2400   25.0100   33.7200 O   0  0  0  0  0  0  0  0  0  0  0  0
   27.0300   26.2200   34.8800 C   0  0  0  0  0  0  0  0  0  0  0  0
   27.3500   26.7300   36.0700 N   0  0  0  0  0  0  0  0  0  0  0  0
   28.5700   27.1800   36.3300 N   0  0  0  0  0  0  0  0  0  0  0  0
   29.5300   27.1100   35.3900 C   0  0  0  0  0  0  0  0  0  0  0  0
   30.8300   27.5700   35.6500 C   0  0  0  0  0  0  0  0  0  0  0  0
   31.8500   27.5400   34.6900 C   0  0  0  0  0  0  0  0  0  0  0  0
   31.5100   27.1200   33.4000 C   0  0  0  0  0  0  0  0  0  0  0  0
   30.2200   26.6300   33.1100 C   0  0  0  0  0  0  0  0  0  0  0  0
   29.2400   26.6600   34.1000 C   0  0  0  0  0  0  0  0  0  0  0  0
   27.9300   26.2600   33.8100 C   0  0  0  0  0  0  0  0  0  0  0  0
   27.5200   25.7100   32.6100 N   0  0  0  0  0  0  0  0  0  0  0  0
   23.2925   26.2477   35.2092 C   0  0  0  0  0  0  0  0  0  0  0  0
   22.3672   26.0395   36.1866 N   0  0  0  0  0  0  0  0  0  0  0  0
   21.0318   26.1590   35.9570 C   0  0  0  0  0  0  0  0  0  0  0  0
   20.5701   26.4993   34.6848 C   0  0  0  0  0  0  0  0  0  0  0  0
   19.2009   26.6085   34.4367 O   0  0  0  0  0  0  0  0  0  0  0  0
   18.6575   26.5528   33.1163 C   0  0  0  0  0  0  0  0  0  0  0  0
   19.5394   27.2075   32.1330 N   0  0  0  0  0  0  0  0  0  0  0  0
   20.9687   27.1731   32.3521 C   0  0  0  0  0  0  0  0  0  0  0  0
   21.7700   27.5230   31.4440 O   0  0  0  0  0  0  0  0  0  0  0  0
   21.4895   26.7479   33.6636 C   0  0  0  0  0  0  0  0  0  0  0  0
   22.8636   26.6351   33.9265 C   0  0  0  0  0  0  0  0  0  0  0  0
   18.9416   27.7109   30.8775 C   0  0  0  0  0  0  0  0  0  0  0  0
   19.3614   26.8581   29.6730 C   0  0  0  0  0  0  0  0  0  0  0  0
   19.2622   29.1952   30.6646 C   0  0  0  0  0  0  0  0  0  0  0  0
  1  2  1  0
  2  3  2  0
  2  4  1  0
  4  5  2  0
  5  6  1  0
  6  7  2  0
  7  8  1  0
  8  9  2  0
  9 10  1  0
 10 11  2  0
 11 12  1  0
 12 13  2  0
 13 14  1  0
  1 15  1  0
 15 16  2  0
 16 17  1  0
 17 18  2  0
 18 19  1  0
 19 20  1  0
 20 21  1  0
 21 22  1  0
 22 23  2  0
 22 24  1  0
 24 25  2  0
 21 26  1  0
 26 27  1  0
 26 28  1  0
 13  4  1  0
 25 15  1  0
 12  7  1  0
 24 18  1  0
M  END
>  <AAScore>  (1) 
383.9669173201408

>  <RootName>  (1) 
./4ZLY/04_DeltaGEst/trajectory_02/rank_00/lead_0090

$$$$
