confid_10
     RDKit          3D

 30 34  0  0  0  0  0  0  0  0999 V2000
   24.5500   26.3900   36.2500 N   0  0  0  0  0  0  0  0  0  0  0  0
   25.6000   26.1300   35.4000 C   0  0  0  0  0  0  0  0  0  0  0  0
   25.4300   25.4300   34.4200 O   0  0  0  0  0  0  0  0  0  0  0  0
   26.9800   26.6300   35.7100 C   0  0  0  0  0  0  0  0  0  0  0  0
   27.3200   26.8200   36.9800 N   0  0  0  0  0  0  0  0  0  0  0  0
   28.4700   27.4000   37.3100 N   0  0  0  0  0  0  0  0  0  0  0  0
   29.4000   27.6300   36.3700 C   0  0  0  0  0  0  0  0  0  0  0  0
   30.6600   28.0500   36.8000 C   0  0  0  0  0  0  0  0  0  0  0  0
   31.5700   28.3600   35.7800 C   0  0  0  0  0  0  0  0  0  0  0  0
   31.3700   28.1000   34.4300 C   0  0  0  0  0  0  0  0  0  0  0  0
   30.1200   27.5900   34.0500 C   0  0  0  0  0  0  0  0  0  0  0  0
   29.1500   27.3400   35.0300 C   0  0  0  0  0  0  0  0  0  0  0  0
   27.8800   26.8900   34.6600 C   0  0  0  0  0  0  0  0  0  0  0  0
   27.4800   26.6100   33.3700 N   0  0  0  0  0  0  0  0  0  0  0  0
   23.2196   25.7895   36.0844 C   0  0  2  0  0  0  0  0  0  0  0  0
   22.1420   26.6460   36.8036 C   0  0  0  0  0  0  0  0  0  0  0  0
   22.1065   26.4073   38.3317 C   0  0  0  0  0  0  0  0  0  0  0  0
   21.8981   24.9797   38.6247 N   0  0  0  0  0  0  0  0  0  0  0  0
   20.7581   24.5570   39.3895 C   0  0  0  0  0  0  0  0  0  0  0  0
   20.0218   23.6301   38.9581 O   0  0  0  0  0  0  0  0  0  0  0  0
   20.3907   25.2482   40.6633 C   0  0  0  0  0  0  0  0  0  0  0  0
   22.6467   24.0492   37.8271 C   0  0  0  0  0  0  0  0  0  0  0  0
   22.9916   22.7844   38.1367 N   0  0  0  0  0  0  0  0  0  0  0  0
   22.7969   22.0408   39.3822 C   0  0  0  0  0  0  0  0  0  0  0  0
   21.7705   20.9182   39.1731 C   0  0  0  0  0  0  0  0  0  0  0  0
   21.7463   19.8935   40.3003 C   0  0  0  0  0  0  0  0  0  0  0  0
   20.5977   20.8717   40.1447 C   0  0  0  0  0  0  0  0  0  0  0  0
   23.7569   22.3845   37.0943 C   0  0  0  0  0  0  0  0  0  0  0  0
   23.9326   23.3503   36.1602 N   0  0  0  0  0  0  0  0  0  0  0  0
   23.2237   24.3915   36.6381 C   0  0  0  0  0  0  0  0  0  0  0  0
  1  2  1  0
  2  3  2  0
  2  4  1  0
  4  5  2  0
  5  6  1  0
  6  7  2  0
  7  8  1  0
  8  9  2  0
  9 10  1  0
 10 11  2  0
 11 12  1  0
 12 13  2  0
 13 14  1  0
 15  1  1  1
 15 16  1  0
 16 17  1  0
 17 18  1  0
 18 19  1  0
 19 20  2  0
 19 21  1  0
 18 22  1  0
 22 23  1  0
 23 24  1  0
 24 25  1  0
 25 26  1  0
 26 27  1  0
 23 28  1  0
 28 29  2  0
 29 30  1  0
 13  4  1  0
 30 15  1  0
 12  7  1  0
 30 22  2  0
 27 25  1  0
M  END
>  <AAScore>  (1) 
779.3811143523977

>  <RootName>  (1) 
./4ZLY/04_DeltaGEst/trajectory_01/rank_00/lead_0344

$$$$
