confid_15
     RDKit          3D

 28 31  0  0  0  0  0  0  0  0999 V2000
   24.6900   26.1200   35.5300 N   0  0  0  0  0  0  0  0  0  0  0  0
   25.6600   25.6700   34.6600 C   0  0  0  0  0  0  0  0  0  0  0  0
   25.2400   25.0100   33.7200 O   0  0  0  0  0  0  0  0  0  0  0  0
   27.0300   26.2200   34.8800 C   0  0  0  0  0  0  0  0  0  0  0  0
   27.3500   26.7300   36.0700 N   0  0  0  0  0  0  0  0  0  0  0  0
   28.5700   27.1800   36.3300 N   0  0  0  0  0  0  0  0  0  0  0  0
   29.5300   27.1100   35.3900 C   0  0  0  0  0  0  0  0  0  0  0  0
   30.8300   27.5700   35.6500 C   0  0  0  0  0  0  0  0  0  0  0  0
   31.8500   27.5400   34.6900 C   0  0  0  0  0  0  0  0  0  0  0  0
   31.5100   27.1200   33.4000 C   0  0  0  0  0  0  0  0  0  0  0  0
   30.2200   26.6300   33.1100 C   0  0  0  0  0  0  0  0  0  0  0  0
   29.2400   26.6600   34.1000 C   0  0  0  0  0  0  0  0  0  0  0  0
   27.9300   26.2600   33.8100 C   0  0  0  0  0  0  0  0  0  0  0  0
   27.5200   25.7100   32.6100 N   0  0  0  0  0  0  0  0  0  0  0  0
   31.1418   28.0841   36.9559 N   0  0  0  0  0  0  0  0  0  0  0  0
   31.4478   29.5185   37.0891 C   0  0  0  0  0  0  0  0  0  0  0  0
   30.6400   30.2106   38.2068 C   0  0  0  0  0  0  0  0  0  0  0  0
   29.3759   29.4613   38.5902 C   0  0  0  0  0  0  0  0  0  0  0  0
   28.0922   29.9861   38.3088 C   0  0  0  0  0  0  0  0  0  0  0  0
   27.9345   31.1994   37.5593 N   0  0  0  0  0  0  0  0  0  0  0  0
   28.1718   31.2039   36.1159 C   0  0  0  0  0  0  0  0  0  0  0  0
   27.4377   32.4003   38.2274 C   0  0  0  0  0  0  0  0  0  0  0  0
   26.9487   29.2879   38.7196 C   0  0  0  0  0  0  0  0  0  0  0  0
   27.0648   28.0654   39.3794 C   0  0  0  0  0  0  0  0  0  0  0  0
   28.3234   27.5160   39.6201 C   0  0  0  0  0  0  0  0  0  0  0  0
   29.4841   28.2008   39.2281 C   0  0  0  0  0  0  0  0  0  0  0  0
   30.8350   27.5427   39.3924 C   0  0  0  0  0  0  0  0  0  0  0  0
   31.4354   27.1265   38.0371 C   0  0  0  0  0  0  0  0  0  0  0  0
  1  2  1  0
  2  3  2  0
  2  4  1  0
  4  5  2  0
  5  6  1  0
  6  7  2  0
  7  8  1  0
  8  9  2  0
  9 10  1  0
 10 11  2  0
 11 12  1  0
 12 13  2  0
 13 14  1  0
  8 15  1  0
 15 16  1  0
 16 17  1  0
 17 18  1  0
 18 19  2  0
 19 20  1  0
 20 21  1  0
 20 22  1  0
 19 23  1  0
 23 24  2  0
 24 25  1  0
 25 26  2  0
 26 27  1  0
 27 28  1  0
 13  4  1  0
 28 15  1  0
 12  7  1  0
 26 18  1  0
M  END
>  <AAScore>  (1) 
0.0064858852259611

>  <RootName>  (1) 
./4ZLY/04_DeltaGEst/trajectory_02/rank_01/lead_0267

$$$$
