confid_2
     RDKit          3D

 29 32  0  0  0  0  0  0  0  0999 V2000
   24.2000   26.2400   35.6900 N   0  0  0  0  0  0  0  0  0  0  0  0
   24.8500   26.2800   34.4800 C   0  0  0  0  0  0  0  0  0  0  0  0
   24.3100   25.7400   33.5400 O   0  0  0  0  0  0  0  0  0  0  0  0
   26.1800   26.9700   34.4700 C   0  0  0  0  0  0  0  0  0  0  0  0
   26.6500   27.6000   35.5500 N   0  0  0  0  0  0  0  0  0  0  0  0
   27.7900   28.2700   35.6200 N   0  0  0  0  0  0  0  0  0  0  0  0
   28.5400   28.3000   34.5100 C   0  0  0  0  0  0  0  0  0  0  0  0
   29.7700   28.9400   34.5600 C   0  0  0  0  0  0  0  0  0  0  0  0
   30.7000   28.8900   33.5000 C   0  0  0  0  0  0  0  0  0  0  0  0
   30.3700   28.1400   32.3700 C   0  0  0  0  0  0  0  0  0  0  0  0
   29.1200   27.5200   32.2800 C   0  0  0  0  0  0  0  0  0  0  0  0
   28.2100   27.6100   33.3300 C   0  0  0  0  0  0  0  0  0  0  0  0
   26.9700   26.9700   33.3100 C   0  0  0  0  0  0  0  0  0  0  0  0
   26.5300   26.2400   32.2200 N   0  0  0  0  0  0  0  0  0  0  0  0
   30.1350   29.6827   35.7381 N   0  0  0  0  0  0  0  0  0  0  0  0
   29.3821   30.8927   36.1031 C   0  0  0  0  0  0  0  0  0  0  0  0
   30.2973   31.9780   36.6848 C   0  0  0  0  0  0  0  0  0  0  0  0
   31.5266   32.1401   35.8367 C   0  0  0  0  0  0  0  0  0  0  0  0
   31.8412   33.2290   35.0425 C   0  0  0  0  0  0  0  0  0  0  0  0
   33.0061   32.8576   34.3876 C   0  0  0  0  0  0  0  0  0  0  0  0
   33.3611   31.6152   34.7718 N   0  0  0  0  0  0  0  0  0  0  0  0
   32.4566   31.1767   35.6347 N   0  0  0  0  0  0  0  0  0  0  0  0
   32.5673   29.8617   36.2826 C   0  0  0  0  0  0  0  0  0  0  0  0
   31.2134   29.1953   36.6059 C   0  0  0  0  0  0  0  0  0  0  0  0
   33.7747   33.6693   33.3897 C   0  0  0  0  0  0  0  0  0  0  0  0
   34.8783   32.9617   32.9481 F   0  0  0  0  0  0  0  0  0  0  0  0
   34.2021   34.8459   33.9764 F   0  0  0  0  0  0  0  0  0  0  0  0
   32.9671   33.9621   32.3064 F   0  0  0  0  0  0  0  0  0  0  0  0
   31.0510   34.4918   34.8805 C   0  0  0  0  0  0  0  0  0  0  0  0
  1  2  1  0
  2  3  2  0
  2  4  1  0
  4  5  2  0
  5  6  1  0
  6  7  2  0
  7  8  1  0
  8  9  2  0
  9 10  1  0
 10 11  2  0
 11 12  1  0
 12 13  2  0
 13 14  1  0
  8 15  1  0
 15 16  1  0
 16 17  1  0
 17 18  1  0
 18 19  2  0
 19 20  1  0
 20 21  2  0
 21 22  1  0
 22 23  1  0
 23 24  1  0
 20 25  1  0
 25 26  1  0
 25 27  1  0
 25 28  1  0
 19 29  1  0
 13  4  1  0
 24 15  1  0
 12  7  1  0
 22 18  1  0
M  END
>  <AAScore>  (1) 
-7.294485255383076

>  <RootName>  (1) 
./4ZLY/04_DeltaGEst/trajectory_04/rank_01/lead_0246

$$$$
