confid_17
     RDKit          3D

 31 34  0  0  0  0  0  0  0  0999 V2000
   24.2000   26.2400   35.6900 N   0  0  0  0  0  0  0  0  0  0  0  0
   24.8500   26.2800   34.4800 C   0  0  0  0  0  0  0  0  0  0  0  0
   24.3100   25.7400   33.5400 O   0  0  0  0  0  0  0  0  0  0  0  0
   26.1800   26.9700   34.4700 C   0  0  0  0  0  0  0  0  0  0  0  0
   26.6500   27.6000   35.5500 N   0  0  0  0  0  0  0  0  0  0  0  0
   27.7900   28.2700   35.6200 N   0  0  0  0  0  0  0  0  0  0  0  0
   28.5400   28.3000   34.5100 C   0  0  0  0  0  0  0  0  0  0  0  0
   29.7700   28.9400   34.5600 C   0  0  0  0  0  0  0  0  0  0  0  0
   30.7000   28.8900   33.5000 C   0  0  0  0  0  0  0  0  0  0  0  0
   30.3700   28.1400   32.3700 C   0  0  0  0  0  0  0  0  0  0  0  0
   29.1200   27.5200   32.2800 C   0  0  0  0  0  0  0  0  0  0  0  0
   28.2100   27.6100   33.3300 C   0  0  0  0  0  0  0  0  0  0  0  0
   26.9700   26.9700   33.3100 C   0  0  0  0  0  0  0  0  0  0  0  0
   26.5300   26.2400   32.2200 N   0  0  0  0  0  0  0  0  0  0  0  0
   23.3588   25.1551   36.1331 C   0  0  0  0  0  0  0  0  0  0  0  0
   23.1465   24.1315   35.3540 N   0  0  0  0  0  0  0  0  0  0  0  0
   22.3948   22.9653   35.7040 C   0  0  0  0  0  0  0  0  0  0  0  0
   21.1810   22.6493   35.1977 C   0  0  0  0  0  0  0  0  0  0  0  0
   20.6029   21.2987   35.5628 C   0  0  0  0  0  0  0  0  0  0  0  0
   19.6955   20.8087   34.5076 N   0  0  0  0  0  0  0  0  0  0  0  0
   18.8252   21.7421   33.7685 C   0  0  0  0  0  0  0  0  0  0  0  0
   18.9194   23.1672   34.3130 C   0  0  0  0  0  0  0  0  0  0  0  0
   20.3262   23.5584   34.4514 N   0  0  0  0  0  0  0  0  0  0  0  0
   20.7346   24.8740   33.9358 C   0  0  0  0  0  0  0  0  0  0  0  0
   20.5615   25.9851   34.9887 C   0  0  0  0  0  0  0  0  0  0  0  0
   20.4753   25.4402   36.2994 O   0  0  0  0  0  0  0  0  0  0  0  0
   21.3200   26.1057   37.2214 C   0  0  0  0  0  0  0  0  0  0  0  0
   22.6152   25.3150   37.4368 C   0  0  0  0  0  0  0  0  0  0  0  0
   19.5839   19.3868   34.2660 C   0  0  0  0  0  0  0  0  0  0  0  0
   20.1530   18.5669   35.0375 O   0  0  0  0  0  0  0  0  0  0  0  0
   18.7728   18.8460   33.1259 C   0  0  0  0  0  0  0  0  0  0  0  0
  1  2  1  0
  2  3  2  0
  2  4  1  0
  4  5  2  0
  5  6  1  0
  6  7  2  0
  7  8  1  0
  8  9  2  0
  9 10  1  0
 10 11  2  0
 11 12  1  0
 12 13  2  0
 13 14  1  0
  1 15  1  0
 15 16  2  0
 16 17  1  0
 17 18  2  0
 18 19  1  0
 19 20  1  0
 20 21  1  0
 21 22  1  0
 22 23  1  0
 23 24  1  0
 24 25  1  0
 25 26  1  0
 26 27  1  0
 27 28  1  0
 20 29  1  0
 29 30  2  0
 29 31  1  0
 13  4  1  0
 28 15  1  0
 12  7  1  0
 23 18  1  0
M  END
>  <AAScore>  (1) 
3246.102181004543

>  <RootName>  (1) 
./4ZLY/04_DeltaGEst/trajectory_04/rank_00/lead_0442

$$$$
