confid_0
     RDKit          3D

 30 33  0  0  0  0  0  0  0  0999 V2000
   24.5700   26.8800   35.5900 N   0  0  0  0  0  0  0  0  0  0  0  0
   25.5000   26.4000   34.6900 C   0  0  0  0  0  0  0  0  0  0  0  0
   25.1700   25.5200   33.9100 O   0  0  0  0  0  0  0  0  0  0  0  0
   26.8400   27.0200   34.7400 C   0  0  0  0  0  0  0  0  0  0  0  0
   27.3800   27.2800   35.9400 N   0  0  0  0  0  0  0  0  0  0  0  0
   28.6200   27.7400   36.0300 N   0  0  0  0  0  0  0  0  0  0  0  0
   29.3800   28.0000   34.9600 C   0  0  0  0  0  0  0  0  0  0  0  0
   30.6700   28.5000   35.1300 C   0  0  0  0  0  0  0  0  0  0  0  0
   31.5400   28.6100   34.0300 C   0  0  0  0  0  0  0  0  0  0  0  0
   31.0900   28.2200   32.7700 C   0  0  0  0  0  0  0  0  0  0  0  0
   29.8000   27.7000   32.6000 C   0  0  0  0  0  0  0  0  0  0  0  0
   28.9600   27.5500   33.7100 C   0  0  0  0  0  0  0  0  0  0  0  0
   27.6600   27.0300   33.5900 C   0  0  0  0  0  0  0  0  0  0  0  0
   27.1600   26.7400   32.3400 N   0  0  0  0  0  0  0  0  0  0  0  0
   33.1509   29.2842   34.2445 S   0  0  0  0  0  6  0  0  0  0  0  0
   33.7710   28.6886   35.4774 O   0  0  0  0  0  0  0  0  0  0  0  0
   34.0111   28.9364   33.0608 O   0  0  0  0  0  0  0  0  0  0  0  0
   33.0486   31.0684   34.4287 C   0  0  1  0  0  0  0  0  0  0  0  0
   34.4218   31.6877   34.6231 C   0  0  0  0  0  0  0  0  0  0  0  0
   34.3701   33.0612   34.1009 N   0  0  0  0  0  0  0  0  0  0  0  0
   33.2905   33.0943   33.0900 C   0  0  2  0  0  0  0  0  0  0  0  0
   32.4924   31.7684   33.1912 C   0  0  2  0  0  0  0  0  0  0  0  0
   30.9784   32.0134   33.2953 C   0  0  0  0  0  0  0  0  0  0  0  0
   33.8522   33.3399   31.6525 C   0  0  0  0  0  0  0  0  0  0  0  0
   34.9987   32.3856   31.2152 C   0  0  0  0  0  0  0  0  0  0  0  0
   36.3959   32.8272   31.6805 C   0  0  0  0  0  0  0  0  0  0  0  0
   36.6777   34.2826   31.3088 C   0  0  0  0  0  0  0  0  0  0  0  0
   35.6113   35.2046   31.8988 C   0  0  0  0  0  0  0  0  0  0  0  0
   34.2168   34.8225   31.3897 C   0  0  0  0  0  0  0  0  0  0  0  0
   34.1133   34.0163   35.1950 C   0  0  0  0  0  0  0  0  0  0  0  0
  1  2  1  0
  2  3  2  0
  2  4  1  0
  4  5  2  0
  5  6  1  0
  6  7  2  0
  7  8  1  0
  8  9  2  0
  9 10  1  0
 10 11  2  0
 11 12  1  0
 12 13  2  0
 13 14  1  0
  9 15  1  0
 15 16  2  0
 15 17  2  0
 18 15  1  6
 18 19  1  0
 19 20  1  0
 20 21  1  0
 21 22  1  0
 22 23  1  1
 21 24  1  6
 24 25  1  0
 25 26  1  0
 26 27  1  0
 27 28  1  0
 28 29  1  0
 20 30  1  0
 13  4  1  0
 22 18  1  0
 29 24  1  0
 12  7  1  0
M  END
>  <AAScore>  (1) 
-5.013136707198377

>  <RootName>  (1) 
./4ZLY/04_DeltaGEst/trajectory_05/rank_01/lead_0314

$$$$
