confid_14
     RDKit          3D

 31 34  0  0  0  0  0  0  0  0999 V2000
   24.2000   26.2400   35.6900 N   0  0  0  0  0  0  0  0  0  0  0  0
   24.8500   26.2800   34.4800 C   0  0  0  0  0  0  0  0  0  0  0  0
   24.3100   25.7400   33.5400 O   0  0  0  0  0  0  0  0  0  0  0  0
   26.1800   26.9700   34.4700 C   0  0  0  0  0  0  0  0  0  0  0  0
   26.6500   27.6000   35.5500 N   0  0  0  0  0  0  0  0  0  0  0  0
   27.7900   28.2700   35.6200 N   0  0  0  0  0  0  0  0  0  0  0  0
   28.5400   28.3000   34.5100 C   0  0  0  0  0  0  0  0  0  0  0  0
   29.7700   28.9400   34.5600 C   0  0  0  0  0  0  0  0  0  0  0  0
   30.7000   28.8900   33.5000 C   0  0  0  0  0  0  0  0  0  0  0  0
   30.3700   28.1400   32.3700 C   0  0  0  0  0  0  0  0  0  0  0  0
   29.1200   27.5200   32.2800 C   0  0  0  0  0  0  0  0  0  0  0  0
   28.2100   27.6100   33.3300 C   0  0  0  0  0  0  0  0  0  0  0  0
   26.9700   26.9700   33.3100 C   0  0  0  0  0  0  0  0  0  0  0  0
   26.5300   26.2400   32.2200 N   0  0  0  0  0  0  0  0  0  0  0  0
   30.1481   29.6721   35.7397 N   0  0  0  0  0  0  0  0  0  0  0  0
   30.4600   28.9356   36.9742 C   0  0  0  0  0  0  0  0  0  0  0  0
   31.8143   29.3392   37.5882 C   0  0  0  0  0  0  0  0  0  0  0  0
   32.8263   29.8798   36.5623 C   0  0  0  0  0  0  0  0  0  0  0  0
   32.4538   31.1878   35.9874 N   0  0  0  0  0  0  0  0  0  0  0  0
   33.3307   31.7593   34.9974 C   0  0  0  0  0  0  0  0  0  0  0  0
   33.8412   31.0112   34.1196 O   0  0  0  0  0  0  0  0  0  0  0  0
   33.6804   33.1999   35.0148 C   0  0  0  0  0  0  0  0  0  0  0  0
   33.7438   33.8955   36.2361 C   0  0  0  0  0  0  0  0  0  0  0  0
   34.0876   35.2500   36.2631 C   0  0  0  0  0  0  0  0  0  0  0  0
   34.3783   35.9228   35.0743 C   0  0  0  0  0  0  0  0  0  0  0  0
   34.7118   37.2367   35.1028 F   0  0  0  0  0  0  0  0  0  0  0  0
   34.3279   35.2409   33.8561 C   0  0  0  0  0  0  0  0  0  0  0  0
   33.9849   33.8849   33.8213 C   0  0  0  0  0  0  0  0  0  0  0  0
   33.9281   33.2524   32.6216 F   0  0  0  0  0  0  0  0  0  0  0  0
   31.1887   31.8669   36.3248 C   0  0  0  0  0  0  0  0  0  0  0  0
   29.9756   31.1301   35.7419 C   0  0  0  0  0  0  0  0  0  0  0  0
  1  2  1  0
  2  3  2  0
  2  4  1  0
  4  5  2  0
  5  6  1  0
  6  7  2  0
  7  8  1  0
  8  9  2  0
  9 10  1  0
 10 11  2  0
 11 12  1  0
 12 13  2  0
 13 14  1  0
  8 15  1  0
 15 16  1  0
 16 17  1  0
 17 18  1  0
 18 19  1  0
 19 20  1  0
 20 21  2  0
 20 22  1  0
 22 23  2  0
 23 24  1  0
 24 25  2  0
 25 26  1  0
 25 27  1  0
 27 28  2  0
 28 29  1  0
 19 30  1  0
 30 31  1  0
 13  4  1  0
 31 15  1  0
 12  7  1  0
 28 22  1  0
M  END
>  <AAScore>  (1) 
-5.377355536998489

>  <RootName>  (1) 
./4ZLY/04_DeltaGEst/trajectory_04/rank_01/lead_0149

$$$$
