confid_9
     RDKit          3D

 29 32  0  0  0  0  0  0  0  0999 V2000
   24.4800   26.1000   36.1300 N   0  0  0  0  0  0  0  0  0  0  0  0
   25.2500   26.2500   34.9900 C   0  0  0  0  0  0  0  0  0  0  0  0
   24.7400   25.7600   33.9900 O   0  0  0  0  0  0  0  0  0  0  0  0
   26.5900   26.8900   34.9600 C   0  0  0  0  0  0  0  0  0  0  0  0
   27.0600   27.2400   36.1600 N   0  0  0  0  0  0  0  0  0  0  0  0
   28.3000   27.7100   36.2400 N   0  0  0  0  0  0  0  0  0  0  0  0
   29.0500   27.9600   35.1500 C   0  0  0  0  0  0  0  0  0  0  0  0
   30.3400   28.4900   35.2600 C   0  0  0  0  0  0  0  0  0  0  0  0
   31.1100   28.8200   34.1400 C   0  0  0  0  0  0  0  0  0  0  0  0
   30.5200   28.6700   32.8800 C   0  0  0  0  0  0  0  0  0  0  0  0
   29.2900   28.0200   32.7700 C   0  0  0  0  0  0  0  0  0  0  0  0
   28.5200   27.7100   33.8900 C   0  0  0  0  0  0  0  0  0  0  0  0
   27.2700   27.0800   33.7600 C   0  0  0  0  0  0  0  0  0  0  0  0
   26.7500   26.8800   32.4900 N   0  0  0  0  0  0  0  0  0  0  0  0
   23.4721   25.0886   36.3267 C   0  0  0  0  0  0  0  0  0  0  0  0
   23.4052   24.0069   35.5089 N   0  0  0  0  0  0  0  0  0  0  0  0
   22.4804   23.0242   35.6683 C   0  0  0  0  0  0  0  0  0  0  0  0
   22.4328   21.9091   34.6610 C   0  0  0  0  0  0  0  0  0  0  0  0
   21.2825   22.0898   33.7666 N   0  0  0  0  0  0  0  0  0  0  0  0
   19.9577   22.3837   34.2688 C   0  0  0  0  0  0  0  0  0  0  0  0
   19.1215   22.9327   33.4991 O   0  0  0  0  0  0  0  0  0  0  0  0
   19.4710   21.9845   35.6482 C   0  0  0  0  0  0  0  0  0  0  0  0
   20.4828   22.0083   36.8120 C   0  0  0  0  0  0  0  0  0  0  0  0
   21.5229   23.1103   36.7020 C   0  0  0  0  0  0  0  0  0  0  0  0
   21.5918   24.2146   37.5965 C   0  0  0  0  0  0  0  0  0  0  0  0
   22.5692   25.2016   37.3859 C   0  0  0  0  0  0  0  0  0  0  0  0
   20.6392   24.4063   38.7583 C   0  0  0  0  0  0  0  0  0  0  0  0
   19.3219   25.0234   38.2968 C   0  0  0  0  0  0  0  0  0  0  0  0
   21.4862   22.0609   32.3138 C   0  0  0  0  0  0  0  0  0  0  0  0
  1  2  1  0
  2  3  2  0
  2  4  1  0
  4  5  2  0
  5  6  1  0
  6  7  2  0
  7  8  1  0
  8  9  2  0
  9 10  1  0
 10 11  2  0
 11 12  1  0
 12 13  2  0
 13 14  1  0
  1 15  1  0
 15 16  2  0
 16 17  1  0
 17 18  1  0
 18 19  1  0
 19 20  1  0
 20 21  2  0
 20 22  1  0
 22 23  1  0
 23 24  1  0
 24 25  1  0
 25 26  2  0
 25 27  1  0
 27 28  1  0
 19 29  1  0
 13  4  1  0
 26 15  1  0
 12  7  1  0
 24 17  2  0
M  END
>  <AAScore>  (1) 
343.7096320209544

>  <RootName>  (1) 
./4ZLY/04_DeltaGEst/trajectory_00/rank_01/lead_0221

$$$$
