confid_3
     RDKit          3D

 27 30  0  0  0  0  0  0  0  0999 V2000
   24.6900   26.1200   35.5300 N   0  0  0  0  0  0  0  0  0  0  0  0
   25.6600   25.6700   34.6600 C   0  0  0  0  0  0  0  0  0  0  0  0
   25.2400   25.0100   33.7200 O   0  0  0  0  0  0  0  0  0  0  0  0
   27.0300   26.2200   34.8800 C   0  0  0  0  0  0  0  0  0  0  0  0
   27.3500   26.7300   36.0700 N   0  0  0  0  0  0  0  0  0  0  0  0
   28.5700   27.1800   36.3300 N   0  0  0  0  0  0  0  0  0  0  0  0
   29.5300   27.1100   35.3900 C   0  0  0  0  0  0  0  0  0  0  0  0
   30.8300   27.5700   35.6500 C   0  0  0  0  0  0  0  0  0  0  0  0
   31.8500   27.5400   34.6900 C   0  0  0  0  0  0  0  0  0  0  0  0
   31.5100   27.1200   33.4000 C   0  0  0  0  0  0  0  0  0  0  0  0
   30.2200   26.6300   33.1100 C   0  0  0  0  0  0  0  0  0  0  0  0
   29.2400   26.6600   34.1000 C   0  0  0  0  0  0  0  0  0  0  0  0
   27.9300   26.2600   33.8100 C   0  0  0  0  0  0  0  0  0  0  0  0
   27.5200   25.7100   32.6100 N   0  0  0  0  0  0  0  0  0  0  0  0
   23.3274   26.3983   35.1631 C   0  0  0  0  0  0  0  0  0  0  0  0
   22.4163   26.6729   36.1335 N   0  0  0  0  0  0  0  0  0  0  0  0
   21.1250   26.9569   35.8253 C   0  0  0  0  0  0  0  0  0  0  0  0
   20.7083   26.9703   34.4901 C   0  0  0  0  0  0  0  0  0  0  0  0
   19.2941   27.3565   34.1422 C   0  0  0  0  0  0  0  0  0  0  0  0
   18.9448   27.0462   32.7368 N   0  0  0  0  0  0  0  0  0  0  0  0
   17.5807   27.5337   32.4473 C   0  0  0  0  0  0  0  0  0  0  0  0
   19.9895   27.4713   31.7511 C   0  0  0  0  0  0  0  0  0  0  0  0
   20.2929   28.9935   31.8088 C   0  0  0  0  0  0  0  0  0  0  0  0
   19.5639   27.1156   30.3056 C   0  0  0  0  0  0  0  0  0  0  0  0
   21.2834   26.6726   32.0499 C   0  0  0  0  0  0  0  0  0  0  0  0
   21.6663   26.7187   33.4985 C   0  0  0  0  0  0  0  0  0  0  0  0
   22.9445   26.4263   33.8571 N   0  0  0  0  0  0  0  0  0  0  0  0
  1  2  1  0
  2  3  2  0
  2  4  1  0
  4  5  2  0
  5  6  1  0
  6  7  2  0
  7  8  1  0
  8  9  2  0
  9 10  1  0
 10 11  2  0
 11 12  1  0
 12 13  2  0
 13 14  1  0
  1 15  1  0
 15 16  2  0
 16 17  1  0
 17 18  2  0
 18 19  1  0
 19 20  1  0
 20 21  1  0
 20 22  1  0
 22 23  1  0
 22 24  1  0
 22 25  1  0
 25 26  1  0
 26 27  2  0
 13  4  1  0
 27 15  1  0
 12  7  1  0
 26 18  1  0
M  END
>  <AAScore>  (1) 
498.5576865246023

>  <RootName>  (1) 
./4ZLY/04_DeltaGEst/trajectory_02/rank_00/lead_0288

$$$$
