confid_6
     RDKit          3D

 29 33  0  0  0  0  0  0  0  0999 V2000
   24.6900   26.1200   35.5300 N   0  0  0  0  0  0  0  0  0  0  0  0
   25.6600   25.6700   34.6600 C   0  0  0  0  0  0  0  0  0  0  0  0
   25.2400   25.0100   33.7200 O   0  0  0  0  0  0  0  0  0  0  0  0
   27.0300   26.2200   34.8800 C   0  0  0  0  0  0  0  0  0  0  0  0
   27.3500   26.7300   36.0700 N   0  0  0  0  0  0  0  0  0  0  0  0
   28.5700   27.1800   36.3300 N   0  0  0  0  0  0  0  0  0  0  0  0
   29.5300   27.1100   35.3900 C   0  0  0  0  0  0  0  0  0  0  0  0
   30.8300   27.5700   35.6500 C   0  0  0  0  0  0  0  0  0  0  0  0
   31.8500   27.5400   34.6900 C   0  0  0  0  0  0  0  0  0  0  0  0
   31.5100   27.1200   33.4000 C   0  0  0  0  0  0  0  0  0  0  0  0
   30.2200   26.6300   33.1100 C   0  0  0  0  0  0  0  0  0  0  0  0
   29.2400   26.6600   34.1000 C   0  0  0  0  0  0  0  0  0  0  0  0
   27.9300   26.2600   33.8100 C   0  0  0  0  0  0  0  0  0  0  0  0
   27.5200   25.7100   32.6100 N   0  0  0  0  0  0  0  0  0  0  0  0
   31.1531   28.0632   36.9586 N   0  0  0  0  0  0  0  0  0  0  0  0
   31.7628   27.1446   37.9292 C   0  0  0  0  0  0  0  0  0  0  0  0
   30.7496   26.7472   39.0111 C   0  0  0  0  0  0  0  0  0  0  0  0
   30.1142   27.9100   39.6505 N   0  0  0  0  0  0  0  0  0  0  0  0
   30.8400   29.1435   39.8036 C   0  0  0  0  0  0  0  0  0  0  0  0
   31.1962   29.5996   41.0801 C   0  0  0  0  0  0  0  0  0  0  0  0
   31.9179   30.7859   41.2103 C   0  0  0  0  0  0  0  0  0  0  0  0
   32.2724   31.4923   40.1059 N   0  0  0  0  0  0  0  0  0  0  0  0
   31.9449   31.0756   38.8545 C   0  0  0  0  0  0  0  0  0  0  0  0
   31.2264   29.8838   38.6687 C   0  0  0  0  0  0  0  0  0  0  0  0
   30.8040   29.4583   37.2789 C   0  0  0  0  0  0  0  0  0  0  0  0
   28.8007   27.7595   40.2881 C   0  0  0  0  0  0  0  0  0  0  0  0
   27.7748   28.6602   39.5897 C   0  0  0  0  0  0  0  0  0  0  0  0
   26.5387   28.9846   40.4135 C   0  0  0  0  0  0  0  0  0  0  0  0
   27.6009   30.0492   40.1851 C   0  0  0  0  0  0  0  0  0  0  0  0
  1  2  1  0
  2  3  2  0
  2  4  1  0
  4  5  2  0
  5  6  1  0
  6  7  2  0
  7  8  1  0
  8  9  2  0
  9 10  1  0
 10 11  2  0
 11 12  1  0
 12 13  2  0
 13 14  1  0
  8 15  1  0
 15 16  1  0
 16 17  1  0
 17 18  1  0
 18 19  1  0
 19 20  2  0
 20 21  1  0
 21 22  2  0
 22 23  1  0
 23 24  2  0
 24 25  1  0
 18 26  1  0
 26 27  1  0
 27 28  1  0
 28 29  1  0
 13  4  1  0
 25 15  1  0
 29 27  1  0
 12  7  1  0
 24 19  1  0
M  END
>  <AAScore>  (1) 
-4.752243551935651

>  <RootName>  (1) 
./4ZLY/04_DeltaGEst/trajectory_02/rank_01/lead_0334

$$$$
