confid_7
     RDKit          3D

 27 30  0  0  0  0  0  0  0  0999 V2000
   24.6900   26.1200   35.5300 N   0  0  0  0  0  0  0  0  0  0  0  0
   25.6600   25.6700   34.6600 C   0  0  0  0  0  0  0  0  0  0  0  0
   25.2400   25.0100   33.7200 O   0  0  0  0  0  0  0  0  0  0  0  0
   27.0300   26.2200   34.8800 C   0  0  0  0  0  0  0  0  0  0  0  0
   27.3500   26.7300   36.0700 N   0  0  0  0  0  0  0  0  0  0  0  0
   28.5700   27.1800   36.3300 N   0  0  0  0  0  0  0  0  0  0  0  0
   29.5300   27.1100   35.3900 C   0  0  0  0  0  0  0  0  0  0  0  0
   30.8300   27.5700   35.6500 C   0  0  0  0  0  0  0  0  0  0  0  0
   31.8500   27.5400   34.6900 C   0  0  0  0  0  0  0  0  0  0  0  0
   31.5100   27.1200   33.4000 C   0  0  0  0  0  0  0  0  0  0  0  0
   30.2200   26.6300   33.1100 C   0  0  0  0  0  0  0  0  0  0  0  0
   29.2400   26.6600   34.1000 C   0  0  0  0  0  0  0  0  0  0  0  0
   27.9300   26.2600   33.8100 C   0  0  0  0  0  0  0  0  0  0  0  0
   27.5200   25.7100   32.6100 N   0  0  0  0  0  0  0  0  0  0  0  0
   31.1398   28.0931   36.9576 N   0  0  0  0  0  0  0  0  0  0  0  0
   32.2454   27.5334   37.7436 C   0  0  0  0  0  0  0  0  0  0  0  0
   31.7263   26.7380   38.9407 C   0  0  0  0  0  0  0  0  0  0  0  0
   31.1342   27.6297   39.9624 N   0  0  0  0  0  0  0  0  0  0  0  0
   31.0555   26.9172   41.2495 C   0  0  0  0  0  0  0  0  0  0  0  0
   29.7885   28.0954   39.5585 C   0  0  0  0  0  0  0  0  0  0  0  0
   29.8859   29.3332   38.6997 C   0  0  0  0  0  0  0  0  0  0  0  0
   29.3030   30.5357   39.1410 C   0  0  0  0  0  0  0  0  0  0  0  0
   29.3053   31.6683   38.3231 C   0  0  0  0  0  0  0  0  0  0  0  0
   29.8825   31.6129   37.0544 C   0  0  0  0  0  0  0  0  0  0  0  0
   30.4695   30.4293   36.6050 C   0  0  0  0  0  0  0  0  0  0  0  0
   30.4863   29.2867   37.4223 C   0  0  0  0  0  0  0  0  0  0  0  0
   28.7369   32.8196   38.7585 F   0  0  0  0  0  0  0  0  0  0  0  0
  1  2  1  0
  2  3  2  0
  2  4  1  0
  4  5  2  0
  5  6  1  0
  6  7  2  0
  7  8  1  0
  8  9  2  0
  9 10  1  0
 10 11  2  0
 11 12  1  0
 12 13  2  0
 13 14  1  0
  8 15  1  0
 15 16  1  0
 16 17  1  0
 17 18  1  0
 18 19  1  0
 18 20  1  0
 20 21  1  0
 21 22  2  0
 22 23  1  0
 23 24  2  0
 24 25  1  0
 25 26  2  0
 23 27  1  0
 13  4  1  0
 26 15  1  0
 12  7  1  0
 26 21  1  0
M  END
>  <AAScore>  (1) 
-3.063362197000046

>  <RootName>  (1) 
./4ZLY/04_DeltaGEst/trajectory_02/rank_01/lead_0001

$$$$
