confid_13
     RDKit          3D

 29 32  0  0  0  0  0  0  0  0999 V2000
   24.4800   26.1000   36.1300 N   0  0  0  0  0  0  0  0  0  0  0  0
   25.2500   26.2500   34.9900 C   0  0  0  0  0  0  0  0  0  0  0  0
   24.7400   25.7600   33.9900 O   0  0  0  0  0  0  0  0  0  0  0  0
   26.5900   26.8900   34.9600 C   0  0  0  0  0  0  0  0  0  0  0  0
   27.0600   27.2400   36.1600 N   0  0  0  0  0  0  0  0  0  0  0  0
   28.3000   27.7100   36.2400 N   0  0  0  0  0  0  0  0  0  0  0  0
   29.0500   27.9600   35.1500 C   0  0  0  0  0  0  0  0  0  0  0  0
   30.3400   28.4900   35.2600 C   0  0  0  0  0  0  0  0  0  0  0  0
   31.1100   28.8200   34.1400 C   0  0  0  0  0  0  0  0  0  0  0  0
   30.5200   28.6700   32.8800 C   0  0  0  0  0  0  0  0  0  0  0  0
   29.2900   28.0200   32.7700 C   0  0  0  0  0  0  0  0  0  0  0  0
   28.5200   27.7100   33.8900 C   0  0  0  0  0  0  0  0  0  0  0  0
   27.2700   27.0800   33.7600 C   0  0  0  0  0  0  0  0  0  0  0  0
   26.7500   26.8800   32.4900 N   0  0  0  0  0  0  0  0  0  0  0  0
   23.4698   25.0937   36.3279 C   0  0  0  0  0  0  0  0  0  0  0  0
   22.3943   25.3839   37.1016 N   0  0  0  0  0  0  0  0  0  0  0  0
   21.4067   24.4840   37.3365 C   0  0  0  0  0  0  0  0  0  0  0  0
   21.4570   23.1951   36.7781 C   0  0  0  0  0  0  0  0  0  0  0  0
   20.3082   22.2479   37.1000 C   0  0  0  0  0  0  0  0  0  0  0  0
   19.9382   21.3615   35.9802 N   0  0  0  0  0  0  0  0  0  0  0  0
   19.5128   22.0995   34.7713 C   0  0  0  0  0  0  0  0  0  0  0  0
   19.9052   21.3139   33.5096 C   0  0  0  0  0  0  0  0  0  0  0  0
   21.1850   20.5848   33.6786 N   0  0  0  0  0  0  0  0  0  0  0  0
   22.3407   21.4952   33.8773 C   0  0  0  0  0  0  0  0  0  0  0  0
   22.7901   21.4870   35.3570 C   0  0  0  0  0  0  0  0  0  0  0  0
   22.6014   22.8407   36.0094 C   0  0  0  0  0  0  0  0  0  0  0  0
   23.5968   23.8073   35.7867 C   0  0  0  0  0  0  0  0  0  0  0  0
   21.4049   19.6969   32.5248 C   0  0  0  0  0  0  0  0  0  0  0  0
   18.9031   20.4049   36.4056 C   0  0  0  0  0  0  0  0  0  0  0  0
  1  2  1  0
  2  3  2  0
  2  4  1  0
  4  5  2  0
  5  6  1  0
  6  7  2  0
  7  8  1  0
  8  9  2  0
  9 10  1  0
 10 11  2  0
 11 12  1  0
 12 13  2  0
 13 14  1  0
  1 15  1  0
 15 16  2  0
 16 17  1  0
 17 18  2  0
 18 19  1  0
 19 20  1  0
 20 21  1  0
 21 22  1  0
 22 23  1  0
 23 24  1  0
 24 25  1  0
 25 26  1  0
 26 27  2  0
 23 28  1  0
 20 29  1  0
 13  4  1  0
 27 15  1  0
 12  7  1  0
 26 18  1  0
M  END
>  <AAScore>  (1) 
419.0002738529071

>  <RootName>  (1) 
./4ZLY/04_DeltaGEst/trajectory_00/rank_01/lead_0355

$$$$
