confid_8
     RDKit          3D

 27 29  0  0  0  0  0  0  0  0999 V2000
   24.5700   26.8800   35.5900 N   0  0  0  0  0  0  0  0  0  0  0  0
   25.5000   26.4000   34.6900 C   0  0  0  0  0  0  0  0  0  0  0  0
   25.1700   25.5200   33.9100 O   0  0  0  0  0  0  0  0  0  0  0  0
   26.8400   27.0200   34.7400 C   0  0  0  0  0  0  0  0  0  0  0  0
   27.3800   27.2800   35.9400 N   0  0  0  0  0  0  0  0  0  0  0  0
   28.6200   27.7400   36.0300 N   0  0  0  0  0  0  0  0  0  0  0  0
   29.3800   28.0000   34.9600 C   0  0  0  0  0  0  0  0  0  0  0  0
   30.6700   28.5000   35.1300 C   0  0  0  0  0  0  0  0  0  0  0  0
   31.5400   28.6100   34.0300 C   0  0  0  0  0  0  0  0  0  0  0  0
   31.0900   28.2200   32.7700 C   0  0  0  0  0  0  0  0  0  0  0  0
   29.8000   27.7000   32.6000 C   0  0  0  0  0  0  0  0  0  0  0  0
   28.9600   27.5500   33.7100 C   0  0  0  0  0  0  0  0  0  0  0  0
   27.6600   27.0300   33.5900 C   0  0  0  0  0  0  0  0  0  0  0  0
   27.1600   26.7400   32.3400 N   0  0  0  0  0  0  0  0  0  0  0  0
   33.1591   29.2645   34.2523 S   0  0  0  0  0  6  0  0  0  0  0  0
   33.9952   28.9835   33.0338 O   0  0  0  0  0  0  0  0  0  0  0  0
   33.7975   28.5945   35.4363 O   0  0  0  0  0  0  0  0  0  0  0  0
   33.0387   31.0290   34.5401 C   0  0  0  0  0  0  0  0  0  0  0  0
   34.1155   31.7905   33.7852 C   0  0  0  0  0  0  0  0  0  0  0  0
   33.8926   32.2114   32.4423 C   0  0  0  0  0  0  0  0  0  0  0  0
   32.5786   31.9538   31.7425 C   0  0  0  0  0  0  0  0  0  0  0  0
   34.8978   32.9256   31.7629 C   0  0  0  0  0  0  0  0  0  0  0  0
   36.1156   33.1935   32.3810 C   0  0  0  0  0  0  0  0  0  0  0  0
   36.3541   32.7624   33.6811 C   0  0  0  0  0  0  0  0  0  0  0  0
   35.3741   32.0552   34.3935 C   0  0  0  0  0  0  0  0  0  0  0  0
   35.6835   31.6313   35.8071 C   0  0  0  0  0  0  0  0  0  0  0  0
   34.7022   33.3707   30.4952 F   0  0  0  0  0  0  0  0  0  0  0  0
  1  2  1  0
  2  3  2  0
  2  4  1  0
  4  5  2  0
  5  6  1  0
  6  7  2  0
  7  8  1  0
  8  9  2  0
  9 10  1  0
 10 11  2  0
 11 12  1  0
 12 13  2  0
 13 14  1  0
  9 15  1  0
 15 16  2  0
 15 17  2  0
 15 18  1  0
 18 19  1  0
 19 20  2  0
 20 21  1  0
 20 22  1  0
 22 23  2  0
 23 24  1  0
 24 25  2  0
 25 26  1  0
 22 27  1  0
 13  4  1  0
 25 19  1  0
 12  7  1  0
M  END
>  <AAScore>  (1) 
-5.555614663386476

>  <RootName>  (1) 
./4ZLY/04_DeltaGEst/trajectory_05/rank_01/lead_0062

$$$$
