confid_2
     RDKit          3D

 27 30  0  0  0  0  0  0  0  0999 V2000
   24.6900   26.1200   35.5300 N   0  0  0  0  0  0  0  0  0  0  0  0
   25.6600   25.6700   34.6600 C   0  0  0  0  0  0  0  0  0  0  0  0
   25.2400   25.0100   33.7200 O   0  0  0  0  0  0  0  0  0  0  0  0
   27.0300   26.2200   34.8800 C   0  0  0  0  0  0  0  0  0  0  0  0
   27.3500   26.7300   36.0700 N   0  0  0  0  0  0  0  0  0  0  0  0
   28.5700   27.1800   36.3300 N   0  0  0  0  0  0  0  0  0  0  0  0
   29.5300   27.1100   35.3900 C   0  0  0  0  0  0  0  0  0  0  0  0
   30.8300   27.5700   35.6500 C   0  0  0  0  0  0  0  0  0  0  0  0
   31.8500   27.5400   34.6900 C   0  0  0  0  0  0  0  0  0  0  0  0
   31.5100   27.1200   33.4000 C   0  0  0  0  0  0  0  0  0  0  0  0
   30.2200   26.6300   33.1100 C   0  0  0  0  0  0  0  0  0  0  0  0
   29.2400   26.6600   34.1000 C   0  0  0  0  0  0  0  0  0  0  0  0
   27.9300   26.2600   33.8100 C   0  0  0  0  0  0  0  0  0  0  0  0
   27.5200   25.7100   32.6100 N   0  0  0  0  0  0  0  0  0  0  0  0
   31.1842   28.0726   37.0013 C   0  0  0  0  0  0  0  0  0  0  0  0
   30.9829   27.2714   38.1363 C   0  0  0  0  0  0  0  0  0  0  0  0
   31.3325   27.7383   39.4120 C   0  0  0  0  0  0  0  0  0  0  0  0
   31.0386   26.8887   40.6284 C   0  0  0  0  0  0  0  0  0  0  0  0
   32.0569   27.1465   41.7447 C   0  0  0  0  0  0  0  0  0  0  0  0
   32.1689   28.5784   42.0100 N   0  0  0  0  0  0  0  0  0  0  0  0
   32.2113   29.5071   40.9216 C   0  0  0  0  0  0  0  0  0  0  0  0
   32.5136   30.7111   41.1385 O   0  0  0  0  0  0  0  0  0  0  0  0
   31.8701   29.0355   39.5600 C   0  0  0  0  0  0  0  0  0  0  0  0
   32.0773   29.8350   38.4202 C   0  0  0  0  0  0  0  0  0  0  0  0
   32.6102   31.0788   38.5248 F   0  0  0  0  0  0  0  0  0  0  0  0
   31.7415   29.3510   37.1532 C   0  0  0  0  0  0  0  0  0  0  0  0
   32.2813   29.0195   43.2826 F   0  0  0  0  0  0  0  0  0  0  0  0
  1  2  1  0
  2  3  2  0
  2  4  1  0
  4  5  2  0
  5  6  1  0
  6  7  2  0
  7  8  1  0
  8  9  2  0
  9 10  1  0
 10 11  2  0
 11 12  1  0
 12 13  2  0
 13 14  1  0
  8 15  1  0
 15 16  2  0
 16 17  1  0
 17 18  1  0
 18 19  1  0
 19 20  1  0
 20 21  1  0
 21 22  2  0
 21 23  1  0
 23 24  1  0
 24 25  1  0
 24 26  2  0
 20 27  1  0
 13  4  1  0
 26 15  1  0
 12  7  1  0
 23 17  2  0
M  END
>  <AAScore>  (1) 
7.529167110820832

>  <RootName>  (1) 
./4ZLY/04_DeltaGEst/trajectory_02/rank_01/lead_0486

$$$$
