confid_8
     RDKit          3D

 29 32  0  0  0  0  0  0  0  0999 V2000
   24.6900   26.1200   35.5300 N   0  0  0  0  0  0  0  0  0  0  0  0
   25.6600   25.6700   34.6600 C   0  0  0  0  0  0  0  0  0  0  0  0
   25.2400   25.0100   33.7200 O   0  0  0  0  0  0  0  0  0  0  0  0
   27.0300   26.2200   34.8800 C   0  0  0  0  0  0  0  0  0  0  0  0
   27.3500   26.7300   36.0700 N   0  0  0  0  0  0  0  0  0  0  0  0
   28.5700   27.1800   36.3300 N   0  0  0  0  0  0  0  0  0  0  0  0
   29.5300   27.1100   35.3900 C   0  0  0  0  0  0  0  0  0  0  0  0
   30.8300   27.5700   35.6500 C   0  0  0  0  0  0  0  0  0  0  0  0
   31.8500   27.5400   34.6900 C   0  0  0  0  0  0  0  0  0  0  0  0
   31.5100   27.1200   33.4000 C   0  0  0  0  0  0  0  0  0  0  0  0
   30.2200   26.6300   33.1100 C   0  0  0  0  0  0  0  0  0  0  0  0
   29.2400   26.6600   34.1000 C   0  0  0  0  0  0  0  0  0  0  0  0
   27.9300   26.2600   33.8100 C   0  0  0  0  0  0  0  0  0  0  0  0
   27.5200   25.7100   32.6100 N   0  0  0  0  0  0  0  0  0  0  0  0
   31.1490   28.0738   36.9591 N   0  0  0  0  0  0  0  0  0  0  0  0
   30.5966   29.3736   37.3810 C   0  0  0  0  0  0  0  0  0  0  0  0
   29.6354   29.2462   38.5825 C   0  0  0  0  0  0  0  0  0  0  0  0
   29.6792   27.8945   39.1795 N   0  0  0  0  0  0  0  0  0  0  0  0
   28.4161   27.5121   39.8498 C   0  0  0  0  0  0  0  0  0  0  0  0
   28.0519   28.4015   41.0547 C   0  0  0  0  0  0  0  0  0  0  0  0
   26.7120   27.9997   41.6110 C   0  0  0  0  0  0  0  0  0  0  0  0
   25.5334   28.5692   41.1001 C   0  0  0  0  0  0  0  0  0  0  0  0
   24.2872   28.1684   41.5916 C   0  0  0  0  0  0  0  0  0  0  0  0
   24.2082   27.1910   42.5876 C   0  0  0  0  0  0  0  0  0  0  0  0
   25.3753   26.6095   43.0905 C   0  0  0  0  0  0  0  0  0  0  0  0
   26.6237   27.0071   42.6016 C   0  0  0  0  0  0  0  0  0  0  0  0
   30.8683   27.6742   40.0294 C   0  0  0  0  0  0  0  0  0  0  0  0
   32.1848   27.8122   39.2428 C   0  0  0  0  0  0  0  0  0  0  0  0
   32.0836   27.2975   37.7964 C   0  0  0  0  0  0  0  0  0  0  0  0
  1  2  1  0
  2  3  2  0
  2  4  1  0
  4  5  2  0
  5  6  1  0
  6  7  2  0
  7  8  1  0
  8  9  2  0
  9 10  1  0
 10 11  2  0
 11 12  1  0
 12 13  2  0
 13 14  1  0
  8 15  1  0
 15 16  1  0
 16 17  1  0
 17 18  1  0
 18 19  1  0
 19 20  1  0
 20 21  1  0
 21 22  2  0
 22 23  1  0
 23 24  2  0
 24 25  1  0
 25 26  2  0
 18 27  1  0
 27 28  1  0
 28 29  1  0
 13  4  1  0
 29 15  1  0
 12  7  1  0
 26 21  1  0
M  END
>  <AAScore>  (1) 
19.10653543878912

>  <RootName>  (1) 
./4ZLY/04_DeltaGEst/trajectory_02/rank_01/lead_0145

$$$$
