confid_12
     RDKit          3D

 31 34  0  0  0  0  0  0  0  0999 V2000
   24.2000   26.2400   35.6900 N   0  0  0  0  0  0  0  0  0  0  0  0
   24.8500   26.2800   34.4800 C   0  0  0  0  0  0  0  0  0  0  0  0
   24.3100   25.7400   33.5400 O   0  0  0  0  0  0  0  0  0  0  0  0
   26.1800   26.9700   34.4700 C   0  0  0  0  0  0  0  0  0  0  0  0
   26.6500   27.6000   35.5500 N   0  0  0  0  0  0  0  0  0  0  0  0
   27.7900   28.2700   35.6200 N   0  0  0  0  0  0  0  0  0  0  0  0
   28.5400   28.3000   34.5100 C   0  0  0  0  0  0  0  0  0  0  0  0
   29.7700   28.9400   34.5600 C   0  0  0  0  0  0  0  0  0  0  0  0
   30.7000   28.8900   33.5000 C   0  0  0  0  0  0  0  0  0  0  0  0
   30.3700   28.1400   32.3700 C   0  0  0  0  0  0  0  0  0  0  0  0
   29.1200   27.5200   32.2800 C   0  0  0  0  0  0  0  0  0  0  0  0
   28.2100   27.6100   33.3300 C   0  0  0  0  0  0  0  0  0  0  0  0
   26.9700   26.9700   33.3100 C   0  0  0  0  0  0  0  0  0  0  0  0
   26.5300   26.2400   32.2200 N   0  0  0  0  0  0  0  0  0  0  0  0
   23.1959   25.2964   36.0945 C   0  0  0  0  0  0  0  0  0  0  0  0
   23.1321   24.1451   35.4608 N   0  0  0  0  0  0  0  0  0  0  0  0
   22.3349   22.9589   35.6145 C   0  0  0  0  0  0  0  0  0  0  0  0
   21.0445   22.9346   35.9857 C   0  0  0  0  0  0  0  0  0  0  0  0
   20.2481   24.1996   36.0022 C   0  0  0  0  0  0  0  0  0  0  0  0
   20.1116   24.6011   37.4088 N   0  0  0  0  0  0  0  0  0  0  0  0
   19.2941   23.6077   38.1636 C   0  0  0  0  0  0  0  0  0  0  0  0
   19.2474   22.1910   37.5267 C   0  0  0  0  0  0  0  0  0  0  0  0
   20.5109   21.8689   36.8247 N   0  0  0  0  0  0  0  0  0  0  0  0
   21.3390   20.7764   37.3795 C   0  0  0  0  0  0  0  0  0  0  0  0
   20.6445   19.4121   37.2712 C   0  0  0  0  0  0  0  0  0  0  0  0
   21.2024   18.3947   38.2804 C   0  0  0  0  0  0  0  0  0  0  0  0
   22.6831   18.0686   38.0544 C   0  0  0  0  0  0  0  0  0  0  0  0
   23.0975   17.1515   39.0446 O   0  0  0  0  0  0  0  0  0  0  0  0
   24.3685   16.6404   38.7078 C   0  0  0  0  0  0  0  0  0  0  0  0
   21.4465   24.7724   38.0401 C   0  0  0  0  0  0  0  0  0  0  0  0
   22.3270   25.7655   37.2713 C   0  0  0  0  0  0  0  0  0  0  0  0
  1  2  1  0
  2  3  2  0
  2  4  1  0
  4  5  2  0
  5  6  1  0
  6  7  2  0
  7  8  1  0
  8  9  2  0
  9 10  1  0
 10 11  2  0
 11 12  1  0
 12 13  2  0
 13 14  1  0
  1 15  1  0
 15 16  2  0
 16 17  1  0
 17 18  2  0
 18 19  1  0
 19 20  1  0
 20 21  1  0
 21 22  1  0
 22 23  1  0
 23 24  1  0
 24 25  1  0
 25 26  1  0
 26 27  1  0
 27 28  1  0
 28 29  1  0
 20 30  1  0
 30 31  1  0
 13  4  1  0
 31 15  1  0
 12  7  1  0
 23 18  1  0
M  END
>  <AAScore>  (1) 
1370.1729168471263

>  <RootName>  (1) 
./4ZLY/04_DeltaGEst/trajectory_04/rank_00/lead_0403

$$$$
