confid_7
     RDKit          3D

 29 32  0  0  0  0  0  0  0  0999 V2000
   25.3300   26.2600   34.7600 N   0  0  0  0  0  0  0  0  0  0  0  0
   26.1200   25.9200   33.6900 C   0  0  0  0  0  0  0  0  0  0  0  0
   25.6300   25.1100   32.9400 O   0  0  0  0  0  0  0  0  0  0  0  0
   27.5200   26.3800   33.4600 C   0  0  0  0  0  0  0  0  0  0  0  0
   28.1600   26.6300   34.6100 N   0  0  0  0  0  0  0  0  0  0  0  0
   29.4800   26.8500   34.5700 N   0  0  0  0  0  0  0  0  0  0  0  0
   30.1900   26.7800   33.4400 C   0  0  0  0  0  0  0  0  0  0  0  0
   31.5600   27.0500   33.5000 C   0  0  0  0  0  0  0  0  0  0  0  0
   32.2700   27.2400   32.3100 C   0  0  0  0  0  0  0  0  0  0  0  0
   31.6100   27.2500   31.0800 C   0  0  0  0  0  0  0  0  0  0  0  0
   30.2700   26.8700   31.0600 C   0  0  0  0  0  0  0  0  0  0  0  0
   29.5100   26.6900   32.2300 C   0  0  0  0  0  0  0  0  0  0  0  0
   28.1400   26.4100   32.2000 C   0  0  0  0  0  0  0  0  0  0  0  0
   27.4300   26.1300   31.0500 N   0  0  0  0  0  0  0  0  0  0  0  0
   24.2874   25.4550   35.3463 C   0  0  0  0  0  0  0  0  0  0  0  0
   23.3200   26.0709   36.0691 N   0  0  0  0  0  0  0  0  0  0  0  0
   22.3316   25.3849   36.6932 C   0  0  0  0  0  0  0  0  0  0  0  0
   22.2727   23.9803   36.6298 C   0  0  0  0  0  0  0  0  0  0  0  0
   21.1131   23.3001   37.3393 C   0  0  0  0  0  0  0  0  0  0  0  0
   21.5300   22.1164   38.2246 C   0  0  0  0  0  0  0  0  0  0  0  0
   21.0015   20.8432   37.7078 N   0  0  0  0  0  0  0  0  0  0  0  0
   21.4550   20.2756   36.4561 C   0  0  0  0  0  0  0  0  0  0  0  0
   21.3521   19.0341   36.2644 O   0  0  0  0  0  0  0  0  0  0  0  0
   22.0207   21.1119   35.3393 C   0  0  0  0  0  0  0  0  0  0  0  0
   23.3477   21.7850   35.7209 C   0  0  0  0  0  0  0  0  0  0  0  0
   23.2616   23.2985   35.8598 C   0  0  0  0  0  0  0  0  0  0  0  0
   24.2862   24.0552   35.2592 C   0  0  0  0  0  0  0  0  0  0  0  0
   20.0981   20.0581   38.5622 C   0  0  0  0  0  0  0  0  0  0  0  0
   20.8967   19.1638   39.5071 C   0  0  0  0  0  0  0  0  0  0  0  0
  1  2  1  0
  2  3  2  0
  2  4  1  0
  4  5  2  0
  5  6  1  0
  6  7  2  0
  7  8  1  0
  8  9  2  0
  9 10  1  0
 10 11  2  0
 11 12  1  0
 12 13  2  0
 13 14  1  0
  1 15  1  0
 15 16  2  0
 16 17  1  0
 17 18  2  0
 18 19  1  0
 19 20  1  0
 20 21  1  0
 21 22  1  0
 22 23  2  0
 22 24  1  0
 24 25  1  0
 25 26  1  0
 26 27  2  0
 21 28  1  0
 28 29  1  0
 13  4  1  0
 27 15  1  0
 12  7  1  0
 26 18  1  0
M  END
>  <AAScore>  (1) 
11495.063300105472

>  <RootName>  (1) 
./4ZLY/04_DeltaGEst/trajectory_03/rank_00/lead_0164

$$$$
