confid_0
     RDKit          3D

 28 31  0  0  0  0  0  0  0  0999 V2000
   24.5500   26.3900   36.2500 N   0  0  0  0  0  0  0  0  0  0  0  0
   25.6000   26.1300   35.4000 C   0  0  0  0  0  0  0  0  0  0  0  0
   25.4300   25.4300   34.4200 O   0  0  0  0  0  0  0  0  0  0  0  0
   26.9800   26.6300   35.7100 C   0  0  0  0  0  0  0  0  0  0  0  0
   27.3200   26.8200   36.9800 N   0  0  0  0  0  0  0  0  0  0  0  0
   28.4700   27.4000   37.3100 N   0  0  0  0  0  0  0  0  0  0  0  0
   29.4000   27.6300   36.3700 C   0  0  0  0  0  0  0  0  0  0  0  0
   30.6600   28.0500   36.8000 C   0  0  0  0  0  0  0  0  0  0  0  0
   31.5700   28.3600   35.7800 C   0  0  0  0  0  0  0  0  0  0  0  0
   31.3700   28.1000   34.4300 C   0  0  0  0  0  0  0  0  0  0  0  0
   30.1200   27.5900   34.0500 C   0  0  0  0  0  0  0  0  0  0  0  0
   29.1500   27.3400   35.0300 C   0  0  0  0  0  0  0  0  0  0  0  0
   27.8800   26.8900   34.6600 C   0  0  0  0  0  0  0  0  0  0  0  0
   27.4800   26.6100   33.3700 N   0  0  0  0  0  0  0  0  0  0  0  0
   23.2447   25.7189   36.1411 C   0  0  0  0  0  0  0  0  0  0  0  0
   22.1633   26.4921   36.9400 C   0  0  0  0  0  0  0  0  0  0  0  0
   21.9527   25.9536   38.3685 C   0  0  0  0  0  0  0  0  0  0  0  0
   23.1801   25.3297   38.8852 N   0  0  0  0  0  0  0  0  0  0  0  0
   23.8132   25.8427   40.0778 C   0  0  0  0  0  0  0  0  0  0  0  0
   23.6065   27.0364   40.4287 O   0  0  0  0  0  0  0  0  0  0  0  0
   24.7050   25.0083   40.9080 C   0  0  0  0  0  0  0  0  0  0  0  0
   25.4698   25.4591   41.9698 C   0  0  0  0  0  0  0  0  0  0  0  0
   26.1311   24.3516   42.4567 C   0  0  0  0  0  0  0  0  0  0  0  0
   25.7279   23.2980   41.6616 C   0  0  0  0  0  0  0  0  0  0  0  0
   26.1622   21.8793   41.8121 C   0  0  0  0  0  0  0  0  0  0  0  0
   24.8768   23.7151   40.7538 O   0  0  0  0  0  0  0  0  0  0  0  0
   23.7943   24.2345   38.1146 C   0  0  0  0  0  0  0  0  0  0  0  0
   23.3543   24.2663   36.6411 C   0  0  0  0  0  0  0  0  0  0  0  0
  1  2  1  0
  2  3  2  0
  2  4  1  0
  4  5  2  0
  5  6  1  0
  6  7  2  0
  7  8  1  0
  8  9  2  0
  9 10  1  0
 10 11  2  0
 11 12  1  0
 12 13  2  0
 13 14  1  0
  1 15  1  0
 15 16  1  0
 16 17  1  0
 17 18  1  0
 18 19  1  0
 19 20  2  0
 19 21  1  0
 21 22  2  0
 22 23  1  0
 23 24  2  0
 24 25  1  0
 24 26  1  0
 18 27  1  0
 27 28  1  0
 13  4  1  0
 28 15  1  0
 12  7  1  0
 26 21  1  0
M  END
>  <AAScore>  (1) 
108.50321395951488

>  <RootName>  (1) 
./4ZLY/04_DeltaGEst/trajectory_01/rank_00/lead_0407

$$$$
