confid_16
     RDKit          3D

 29 32  0  0  0  0  0  0  0  0999 V2000
   25.3300   26.2600   34.7600 N   0  0  0  0  0  0  0  0  0  0  0  0
   26.1200   25.9200   33.6900 C   0  0  0  0  0  0  0  0  0  0  0  0
   25.6300   25.1100   32.9400 O   0  0  0  0  0  0  0  0  0  0  0  0
   27.5200   26.3800   33.4600 C   0  0  0  0  0  0  0  0  0  0  0  0
   28.1600   26.6300   34.6100 N   0  0  0  0  0  0  0  0  0  0  0  0
   29.4800   26.8500   34.5700 N   0  0  0  0  0  0  0  0  0  0  0  0
   30.1900   26.7800   33.4400 C   0  0  0  0  0  0  0  0  0  0  0  0
   31.5600   27.0500   33.5000 C   0  0  0  0  0  0  0  0  0  0  0  0
   32.2700   27.2400   32.3100 C   0  0  0  0  0  0  0  0  0  0  0  0
   31.6100   27.2500   31.0800 C   0  0  0  0  0  0  0  0  0  0  0  0
   30.2700   26.8700   31.0600 C   0  0  0  0  0  0  0  0  0  0  0  0
   29.5100   26.6900   32.2300 C   0  0  0  0  0  0  0  0  0  0  0  0
   28.1400   26.4100   32.2000 C   0  0  0  0  0  0  0  0  0  0  0  0
   27.4300   26.1300   31.0500 N   0  0  0  0  0  0  0  0  0  0  0  0
   26.5169   27.1359   30.4947 C   0  0  0  0  0  0  0  0  0  0  0  0
   26.6976   27.2244   28.9761 C   0  0  0  0  0  0  0  0  0  0  0  0
   26.7621   25.8899   28.3629 N   0  0  0  0  0  0  0  0  0  0  0  0
   26.6990   25.7762   26.9332 C   0  0  0  0  0  0  0  0  0  0  0  0
   25.5110   25.3411   26.3282 C   0  0  0  0  0  0  0  0  0  0  0  0
   25.4147   25.2240   24.9332 C   0  0  0  0  0  0  0  0  0  0  0  0
   24.1768   24.7794   24.3477 N   0  0  0  0  0  0  0  0  0  0  0  0
   23.9736   24.6248   22.9111 C   0  0  0  0  0  0  0  0  0  0  0  0
   26.5336   25.5456   24.1428 C   0  0  0  0  0  0  0  0  0  0  0  0
   27.7231   25.9702   24.7404 C   0  0  0  0  0  0  0  0  0  0  0  0
   27.8146   26.0858   26.1322 C   0  0  0  0  0  0  0  0  0  0  0  0
   29.0670   26.4881   26.7234 C   0  0  0  0  0  0  0  0  0  0  0  0
   30.0725   26.8102   27.1971 N   0  0  0  0  0  0  0  0  0  0  0  0
   26.6703   24.6802   29.1867 C   0  0  0  0  0  0  0  0  0  0  0  0
   27.5794   24.8129   30.4119 C   0  0  0  0  0  0  0  0  0  0  0  0
  1  2  1  0
  2  3  2  0
  2  4  1  0
  4  5  2  0
  5  6  1  0
  6  7  2  0
  7  8  1  0
  8  9  2  0
  9 10  1  0
 10 11  2  0
 11 12  1  0
 12 13  2  0
 13 14  1  0
 14 15  1  0
 15 16  1  0
 16 17  1  0
 17 18  1  0
 18 19  2  0
 19 20  1  0
 20 21  1  0
 21 22  1  0
 20 23  2  0
 23 24  1  0
 24 25  2  0
 25 26  1  0
 26 27  3  0
 17 28  1  0
 28 29  1  0
 13  4  1  0
 29 14  1  0
 12  7  1  0
 25 18  1  0
M  END
>  <AAScore>  (1) 
13.724509637524063

>  <RootName>  (1) 
./4ZLY/04_DeltaGEst/trajectory_03/rank_01/lead_0038

$$$$
