confid_5
     RDKit          3D

 27 30  0  0  0  0  0  0  0  0999 V2000
   24.5500   26.3900   36.2500 N   0  0  0  0  0  0  0  0  0  0  0  0
   25.6000   26.1300   35.4000 C   0  0  0  0  0  0  0  0  0  0  0  0
   25.4300   25.4300   34.4200 O   0  0  0  0  0  0  0  0  0  0  0  0
   26.9800   26.6300   35.7100 C   0  0  0  0  0  0  0  0  0  0  0  0
   27.3200   26.8200   36.9800 N   0  0  0  0  0  0  0  0  0  0  0  0
   28.4700   27.4000   37.3100 N   0  0  0  0  0  0  0  0  0  0  0  0
   29.4000   27.6300   36.3700 C   0  0  0  0  0  0  0  0  0  0  0  0
   30.6600   28.0500   36.8000 C   0  0  0  0  0  0  0  0  0  0  0  0
   31.5700   28.3600   35.7800 C   0  0  0  0  0  0  0  0  0  0  0  0
   31.3700   28.1000   34.4300 C   0  0  0  0  0  0  0  0  0  0  0  0
   30.1200   27.5900   34.0500 C   0  0  0  0  0  0  0  0  0  0  0  0
   29.1500   27.3400   35.0300 C   0  0  0  0  0  0  0  0  0  0  0  0
   27.8800   26.8900   34.6600 C   0  0  0  0  0  0  0  0  0  0  0  0
   27.4800   26.6100   33.3700 N   0  0  0  0  0  0  0  0  0  0  0  0
   23.1828   26.0375   35.9666 C   0  0  0  0  0  0  0  0  0  0  0  0
   22.7383   25.7544   34.7215 N   0  0  0  0  0  0  0  0  0  0  0  0
   21.4118   25.5766   34.8713 C   0  0  0  0  0  0  0  0  0  0  0  0
   21.0734   25.7531   36.1948 C   0  0  0  0  0  0  0  0  0  0  0  0
   19.6619   25.8323   36.7219 C   0  0  0  0  0  0  0  0  0  0  0  0
   18.9626   27.0127   36.3439 O   0  0  0  0  0  0  0  0  0  0  0  0
   19.6732   28.2250   36.5781 C   0  0  1  0  0  0  0  0  0  0  0  0
   18.9653   29.3321   35.7959 C   0  0  0  0  0  0  0  0  0  0  0  0
   19.7221   28.6136   38.0761 C   0  0  0  0  0  0  0  0  0  0  0  0
   20.3906   27.6541   38.8690 O   0  0  0  0  0  0  0  0  0  0  0  0
   21.7966   27.6986   38.6987 C   0  0  0  0  0  0  0  0  0  0  0  0
   22.3071   26.3006   38.3351 C   0  0  0  0  0  0  0  0  0  0  0  0
   22.1929   26.0450   36.8921 N   0  0  0  0  0  0  0  0  0  0  0  0
  1  2  1  0
  2  3  2  0
  2  4  1  0
  4  5  2  0
  5  6  1  0
  6  7  2  0
  7  8  1  0
  8  9  2  0
  9 10  1  0
 10 11  2  0
 11 12  1  0
 12 13  2  0
 13 14  1  0
  1 15  1  0
 15 16  2  0
 16 17  1  0
 17 18  2  0
 18 19  1  0
 19 20  1  0
 20 21  1  0
 21 22  1  6
 21 23  1  0
 23 24  1  0
 24 25  1  0
 25 26  1  0
 26 27  1  0
 13  4  1  0
 27 15  1  0
 12  7  1  0
 27 18  1  0
M  END
>  <AAScore>  (1) 
5113.901161097188

>  <RootName>  (1) 
./4ZLY/04_DeltaGEst/trajectory_01/rank_00/lead_0189

$$$$
