confid_0
     RDKit          3D

 27 30  0  0  0  0  0  0  0  0999 V2000
   25.3300   26.2600   34.7600 N   0  0  0  0  0  0  0  0  0  0  0  0
   26.1200   25.9200   33.6900 C   0  0  0  0  0  0  0  0  0  0  0  0
   25.6300   25.1100   32.9400 O   0  0  0  0  0  0  0  0  0  0  0  0
   27.5200   26.3800   33.4600 C   0  0  0  0  0  0  0  0  0  0  0  0
   28.1600   26.6300   34.6100 N   0  0  0  0  0  0  0  0  0  0  0  0
   29.4800   26.8500   34.5700 N   0  0  0  0  0  0  0  0  0  0  0  0
   30.1900   26.7800   33.4400 C   0  0  0  0  0  0  0  0  0  0  0  0
   31.5600   27.0500   33.5000 C   0  0  0  0  0  0  0  0  0  0  0  0
   32.2700   27.2400   32.3100 C   0  0  0  0  0  0  0  0  0  0  0  0
   31.6100   27.2500   31.0800 C   0  0  0  0  0  0  0  0  0  0  0  0
   30.2700   26.8700   31.0600 C   0  0  0  0  0  0  0  0  0  0  0  0
   29.5100   26.6900   32.2300 C   0  0  0  0  0  0  0  0  0  0  0  0
   28.1400   26.4100   32.2000 C   0  0  0  0  0  0  0  0  0  0  0  0
   27.4300   26.1300   31.0500 N   0  0  0  0  0  0  0  0  0  0  0  0
   26.5248   27.1384   30.4881 C   0  0  0  0  0  0  0  0  0  0  0  0
   26.7431   27.2457   28.9758 C   0  0  0  0  0  0  0  0  0  0  0  0
   26.8228   25.9180   28.3440 N   0  0  0  0  0  0  0  0  0  0  0  0
   26.7356   25.8162   26.9139 C   0  0  0  0  0  0  0  0  0  0  0  0
   25.8748   25.0547   26.3961 O   0  0  0  0  0  0  0  0  0  0  0  0
   27.6396   26.5787   26.0377 C   0  0  0  0  0  0  0  0  0  0  0  0
   28.8894   27.0895   26.3794 C   0  0  0  0  0  0  0  0  0  0  0  0
   29.5497   27.7068   25.3637 N   0  0  0  0  0  0  0  0  0  0  0  0
   28.8331   27.7008   24.2183 C   0  0  0  0  0  0  0  0  0  0  0  0
   29.3434   28.2423   22.9269 C   0  0  0  0  0  0  0  0  0  0  0  0
   27.3707   26.8913   24.4055 S   0  0  0  0  0  0  0  0  0  0  0  0
   26.7041   24.7017   29.1569 C   0  0  0  0  0  0  0  0  0  0  0  0
   27.5837   24.8169   30.4059 C   0  0  0  0  0  0  0  0  0  0  0  0
  1  2  1  0
  2  3  2  0
  2  4  1  0
  4  5  2  0
  5  6  1  0
  6  7  2  0
  7  8  1  0
  8  9  2  0
  9 10  1  0
 10 11  2  0
 11 12  1  0
 12 13  2  0
 13 14  1  0
 14 15  1  0
 15 16  1  0
 16 17  1  0
 17 18  1  0
 18 19  2  0
 18 20  1  0
 20 21  2  0
 21 22  1  0
 22 23  2  0
 23 24  1  0
 23 25  1  0
 17 26  1  0
 26 27  1  0
 13  4  1  0
 27 14  1  0
 12  7  1  0
 25 20  1  0
M  END
>  <AAScore>  (1) 
-1.4271452439195191

>  <RootName>  (1) 
./4ZLY/04_DeltaGEst/trajectory_03/rank_01/lead_0023

$$$$
