confid_3
     RDKit          3D

 28 31  0  0  0  0  0  0  0  0999 V2000
   24.4800   26.1000   36.1300 N   0  0  0  0  0  0  0  0  0  0  0  0
   25.2500   26.2500   34.9900 C   0  0  0  0  0  0  0  0  0  0  0  0
   24.7400   25.7600   33.9900 O   0  0  0  0  0  0  0  0  0  0  0  0
   26.5900   26.8900   34.9600 C   0  0  0  0  0  0  0  0  0  0  0  0
   27.0600   27.2400   36.1600 N   0  0  0  0  0  0  0  0  0  0  0  0
   28.3000   27.7100   36.2400 N   0  0  0  0  0  0  0  0  0  0  0  0
   29.0500   27.9600   35.1500 C   0  0  0  0  0  0  0  0  0  0  0  0
   30.3400   28.4900   35.2600 C   0  0  0  0  0  0  0  0  0  0  0  0
   31.1100   28.8200   34.1400 C   0  0  0  0  0  0  0  0  0  0  0  0
   30.5200   28.6700   32.8800 C   0  0  0  0  0  0  0  0  0  0  0  0
   29.2900   28.0200   32.7700 C   0  0  0  0  0  0  0  0  0  0  0  0
   28.5200   27.7100   33.8900 C   0  0  0  0  0  0  0  0  0  0  0  0
   27.2700   27.0800   33.7600 C   0  0  0  0  0  0  0  0  0  0  0  0
   26.7500   26.8800   32.4900 N   0  0  0  0  0  0  0  0  0  0  0  0
   23.3841   25.1815   36.3052 C   0  0  0  0  0  0  0  0  0  0  0  0
   22.3633   25.5279   37.1505 N   0  0  0  0  0  0  0  0  0  0  0  0
   21.3093   24.6987   37.3971 C   0  0  0  0  0  0  0  0  0  0  0  0
   21.2786   23.4545   36.7728 C   0  0  0  0  0  0  0  0  0  0  0  0
   20.2443   22.4043   36.8564 C   0  0  0  0  0  0  0  0  0  0  0  0
   20.7798   21.2562   36.0791 N   0  0  0  0  0  0  0  0  0  0  0  0
   19.7953   20.6985   35.1301 C   0  0  0  0  0  0  0  0  0  0  0  0
   18.7058   19.9113   35.8742 C   0  0  0  0  0  0  0  0  0  0  0  0
   17.7192   19.3615   34.9171 N   0  0  0  0  0  0  0  0  0  0  0  0
   18.1359   18.0343   34.4291 C   0  0  0  0  0  0  0  0  0  0  0  0
   16.3940   19.2558   35.5486 C   0  0  0  0  0  0  0  0  0  0  0  0
   22.0072   21.7293   35.3887 C   0  0  0  0  0  0  0  0  0  0  0  0
   22.2816   23.0739   35.9405 C   0  0  0  0  0  0  0  0  0  0  0  0
   23.3691   23.9103   35.6865 C   0  0  0  0  0  0  0  0  0  0  0  0
  1  2  1  0
  2  3  2  0
  2  4  1  0
  4  5  2  0
  5  6  1  0
  6  7  2  0
  7  8  1  0
  8  9  2  0
  9 10  1  0
 10 11  2  0
 11 12  1  0
 12 13  2  0
 13 14  1  0
  1 15  1  0
 15 16  2  0
 16 17  1  0
 17 18  2  0
 18 19  1  0
 19 20  1  0
 20 21  1  0
 21 22  1  0
 22 23  1  0
 23 24  1  0
 23 25  1  0
 20 26  1  0
 26 27  1  0
 27 28  2  0
 13  4  1  0
 28 15  1  0
 12  7  1  0
 27 18  1  0
M  END
>  <AAScore>  (1) 
289.72107741464504

>  <RootName>  (1) 
./4ZLY/04_DeltaGEst/trajectory_00/rank_00/lead_0290

$$$$
