confid_8
     RDKit          3D

 29 33  0  0  0  0  0  0  0  0999 V2000
   25.3300   26.2600   34.7600 N   0  0  0  0  0  0  0  0  0  0  0  0
   26.1200   25.9200   33.6900 C   0  0  0  0  0  0  0  0  0  0  0  0
   25.6300   25.1100   32.9400 O   0  0  0  0  0  0  0  0  0  0  0  0
   27.5200   26.3800   33.4600 C   0  0  0  0  0  0  0  0  0  0  0  0
   28.1600   26.6300   34.6100 N   0  0  0  0  0  0  0  0  0  0  0  0
   29.4800   26.8500   34.5700 N   0  0  0  0  0  0  0  0  0  0  0  0
   30.1900   26.7800   33.4400 C   0  0  0  0  0  0  0  0  0  0  0  0
   31.5600   27.0500   33.5000 C   0  0  0  0  0  0  0  0  0  0  0  0
   32.2700   27.2400   32.3100 C   0  0  0  0  0  0  0  0  0  0  0  0
   31.6100   27.2500   31.0800 C   0  0  0  0  0  0  0  0  0  0  0  0
   30.2700   26.8700   31.0600 C   0  0  0  0  0  0  0  0  0  0  0  0
   29.5100   26.6900   32.2300 C   0  0  0  0  0  0  0  0  0  0  0  0
   28.1400   26.4100   32.2000 C   0  0  0  0  0  0  0  0  0  0  0  0
   27.4300   26.1300   31.0500 N   0  0  0  0  0  0  0  0  0  0  0  0
   23.8969   26.4112   34.7266 C   0  0  0  0  0  0  0  0  0  0  0  0
   23.2593   26.4590   35.8615 N   0  0  0  0  0  0  0  0  0  0  0  0
   21.8506   26.6876   36.0008 C   0  0  0  0  0  0  0  0  0  0  0  0
   21.0743   26.8960   34.9338 C   0  0  0  0  0  0  0  0  0  0  0  0
   19.5856   27.1868   35.0976 C   0  0  0  0  0  0  0  0  0  0  0  0
   19.1975   28.4581   34.4434 N   0  0  0  0  0  0  0  0  0  0  0  0
   19.0366   28.5543   33.0025 C   0  0  0  0  0  0  0  0  0  0  0  0
   18.5082   29.5759   32.4871 O   0  0  0  0  0  0  0  0  0  0  0  0
   19.5046   27.4493   32.1063 C   0  0  1  0  0  0  0  0  0  0  0  0
   18.7535   26.2876   32.0857 F   0  0  0  0  0  0  0  0  0  0  0  0
   20.5570   27.5640   31.1430 C   0  0  0  0  0  0  0  0  0  0  0  0
   20.9247   27.1623   32.5650 C   0  0  0  0  0  0  0  0  0  0  0  0
   21.6942   26.8534   33.5932 C   0  0  0  0  0  0  0  0  0  0  0  0
   23.1686   26.6310   33.4126 C   0  0  0  0  0  0  0  0  0  0  0  0
   18.9773   29.6554   35.2596 C   0  0  0  0  0  0  0  0  0  0  0  0
  1  2  1  0
  2  3  2  0
  2  4  1  0
  4  5  2  0
  5  6  1  0
  6  7  2  0
  7  8  1  0
  8  9  2  0
  9 10  1  0
 10 11  2  0
 11 12  1  0
 12 13  2  0
 13 14  1  0
  1 15  1  0
 15 16  2  0
 16 17  1  0
 17 18  2  0
 18 19  1  0
 19 20  1  0
 20 21  1  0
 21 22  2  0
 21 23  1  0
 23 24  1  6
 23 25  1  0
 25 26  1  0
 26 27  2  0
 27 28  1  0
 20 29  1  0
 13  4  1  0
 28 15  1  0
 12  7  1  0
 27 18  1  0
 26 23  1  0
M  END
>  <AAScore>  (1) 
227.22604418805943

>  <RootName>  (1) 
./4ZLY/04_DeltaGEst/trajectory_03/rank_00/lead_0294

$$$$
