confid_9
     RDKit          3D

 29 32  0  0  0  0  0  0  0  0999 V2000
   24.5500   26.3900   36.2500 N   0  0  0  0  0  0  0  0  0  0  0  0
   25.6000   26.1300   35.4000 C   0  0  0  0  0  0  0  0  0  0  0  0
   25.4300   25.4300   34.4200 O   0  0  0  0  0  0  0  0  0  0  0  0
   26.9800   26.6300   35.7100 C   0  0  0  0  0  0  0  0  0  0  0  0
   27.3200   26.8200   36.9800 N   0  0  0  0  0  0  0  0  0  0  0  0
   28.4700   27.4000   37.3100 N   0  0  0  0  0  0  0  0  0  0  0  0
   29.4000   27.6300   36.3700 C   0  0  0  0  0  0  0  0  0  0  0  0
   30.6600   28.0500   36.8000 C   0  0  0  0  0  0  0  0  0  0  0  0
   31.5700   28.3600   35.7800 C   0  0  0  0  0  0  0  0  0  0  0  0
   31.3700   28.1000   34.4300 C   0  0  0  0  0  0  0  0  0  0  0  0
   30.1200   27.5900   34.0500 C   0  0  0  0  0  0  0  0  0  0  0  0
   29.1500   27.3400   35.0300 C   0  0  0  0  0  0  0  0  0  0  0  0
   27.8800   26.8900   34.6600 C   0  0  0  0  0  0  0  0  0  0  0  0
   27.4800   26.6100   33.3700 N   0  0  0  0  0  0  0  0  0  0  0  0
   31.0048   28.2818   38.2257 C   0  0  0  0  0  0  0  0  0  0  0  0
   31.5630   29.5054   38.6312 C   0  0  0  0  0  0  0  0  0  0  0  0
   31.8956   29.7307   39.9762 C   0  0  0  0  0  0  0  0  0  0  0  0
   32.5391   31.0399   40.3716 C   0  0  0  0  0  0  0  0  0  0  0  0
   32.5011   31.3058   41.8242 N   0  0  0  0  0  0  0  0  0  0  0  0
   32.9750   32.5767   42.3258 C   0  0  0  0  0  0  0  0  0  0  0  0
   32.6428   32.9577   43.4825 O   0  0  0  0  0  0  0  0  0  0  0  0
   33.8393   33.4757   41.4824 C   0  0  0  0  0  0  0  0  0  0  0  0
   34.3486   34.5351   42.2668 O   0  0  0  0  0  0  0  0  0  0  0  0
   35.1453   35.3731   41.4600 C   0  0  0  0  0  0  0  0  0  0  0  0
   31.8208   30.3819   42.7464 C   0  0  0  0  0  0  0  0  0  0  0  0
   32.0806   28.9314   42.3506 C   0  0  0  0  0  0  0  0  0  0  0  0
   31.6837   28.7123   40.9223 C   0  0  0  0  0  0  0  0  0  0  0  0
   31.1507   27.4811   40.5149 C   0  0  0  0  0  0  0  0  0  0  0  0
   30.8090   27.2692   39.1778 C   0  0  0  0  0  0  0  0  0  0  0  0
  1  2  1  0
  2  3  2  0
  2  4  1  0
  4  5  2  0
  5  6  1  0
  6  7  2  0
  7  8  1  0
  8  9  2  0
  9 10  1  0
 10 11  2  0
 11 12  1  0
 12 13  2  0
 13 14  1  0
  8 15  1  0
 15 16  2  0
 16 17  1  0
 17 18  1  0
 18 19  1  0
 19 20  1  0
 20 21  2  0
 20 22  1  0
 22 23  1  0
 23 24  1  0
 19 25  1  0
 25 26  1  0
 26 27  1  0
 27 28  1  0
 28 29  2  0
 13  4  1  0
 29 15  1  0
 12  7  1  0
 27 17  2  0
M  END
>  <AAScore>  (1) 
233.16426497572945

>  <RootName>  (1) 
./4ZLY/04_DeltaGEst/trajectory_01/rank_01/lead_0110

$$$$
