confid_2
     RDKit          3D

 26 29  0  0  0  0  0  0  0  0999 V2000
   24.4800   26.1000   36.1300 N   0  0  0  0  0  0  0  0  0  0  0  0
   25.2500   26.2500   34.9900 C   0  0  0  0  0  0  0  0  0  0  0  0
   24.7400   25.7600   33.9900 O   0  0  0  0  0  0  0  0  0  0  0  0
   26.5900   26.8900   34.9600 C   0  0  0  0  0  0  0  0  0  0  0  0
   27.0600   27.2400   36.1600 N   0  0  0  0  0  0  0  0  0  0  0  0
   28.3000   27.7100   36.2400 N   0  0  0  0  0  0  0  0  0  0  0  0
   29.0500   27.9600   35.1500 C   0  0  0  0  0  0  0  0  0  0  0  0
   30.3400   28.4900   35.2600 C   0  0  0  0  0  0  0  0  0  0  0  0
   31.1100   28.8200   34.1400 C   0  0  0  0  0  0  0  0  0  0  0  0
   30.5200   28.6700   32.8800 C   0  0  0  0  0  0  0  0  0  0  0  0
   29.2900   28.0200   32.7700 C   0  0  0  0  0  0  0  0  0  0  0  0
   28.5200   27.7100   33.8900 C   0  0  0  0  0  0  0  0  0  0  0  0
   27.2700   27.0800   33.7600 C   0  0  0  0  0  0  0  0  0  0  0  0
   26.7500   26.8800   32.4900 N   0  0  0  0  0  0  0  0  0  0  0  0
   23.5626   25.0192   36.3740 C   0  0  0  0  0  0  0  0  0  0  0  0
   22.6516   25.1801   37.2971 N   0  0  0  0  0  0  0  0  0  0  0  0
   21.5907   24.2651   37.6235 C   0  0  0  0  0  0  0  0  0  0  0  0
   21.3020   23.2407   36.8261 C   0  0  0  0  0  0  0  0  0  0  0  0
   20.0472   22.4282   36.8392 C   0  0  0  0  0  0  0  0  0  0  0  0
   20.2231   21.6645   35.5663 C   0  0  0  0  0  0  0  0  0  0  0  0
   19.3821   20.8454   35.1117 O   0  0  0  0  0  0  0  0  0  0  0  0
   21.5112   21.9888   34.9444 C   0  0  0  0  0  0  0  0  0  0  0  0
   22.1155   22.9015   35.6814 C   0  0  0  0  0  0  0  0  0  0  0  0
   23.8156   23.4181   35.5455 S   0  0  0  0  0  0  0  0  0  0  0  0
   22.0767   21.4156   33.7997 O   0  0  0  0  0  0  0  0  0  0  0  0
   21.4319   20.4123   33.0260 C   0  0  0  0  0  0  0  0  0  0  0  0
  1  2  1  0
  2  3  2  0
  2  4  1  0
  4  5  2  0
  5  6  1  0
  6  7  2  0
  7  8  1  0
  8  9  2  0
  9 10  1  0
 10 11  2  0
 11 12  1  0
 12 13  2  0
 13 14  1  0
  1 15  1  0
 15 16  2  0
 16 17  1  0
 17 18  2  0
 18 19  1  0
 19 20  1  0
 20 21  2  0
 20 22  1  0
 22 23  2  0
 23 24  1  0
 22 25  1  0
 25 26  1  0
 13  4  1  0
 24 15  1  0
 12  7  1  0
 23 18  1  0
M  END
>  <AAScore>  (1) 
198.79755559166804

>  <RootName>  (1) 
./4ZLY/04_DeltaGEst/trajectory_00/rank_00/lead_0280

$$$$
