confid_6
     RDKit          3D

 27 30  0  0  0  0  0  0  0  0999 V2000
   24.5500   26.3900   36.2500 N   0  0  0  0  0  0  0  0  0  0  0  0
   25.6000   26.1300   35.4000 C   0  0  0  0  0  0  0  0  0  0  0  0
   25.4300   25.4300   34.4200 O   0  0  0  0  0  0  0  0  0  0  0  0
   26.9800   26.6300   35.7100 C   0  0  0  0  0  0  0  0  0  0  0  0
   27.3200   26.8200   36.9800 N   0  0  0  0  0  0  0  0  0  0  0  0
   28.4700   27.4000   37.3100 N   0  0  0  0  0  0  0  0  0  0  0  0
   29.4000   27.6300   36.3700 C   0  0  0  0  0  0  0  0  0  0  0  0
   30.6600   28.0500   36.8000 C   0  0  0  0  0  0  0  0  0  0  0  0
   31.5700   28.3600   35.7800 C   0  0  0  0  0  0  0  0  0  0  0  0
   31.3700   28.1000   34.4300 C   0  0  0  0  0  0  0  0  0  0  0  0
   30.1200   27.5900   34.0500 C   0  0  0  0  0  0  0  0  0  0  0  0
   29.1500   27.3400   35.0300 C   0  0  0  0  0  0  0  0  0  0  0  0
   27.8800   26.8900   34.6600 C   0  0  0  0  0  0  0  0  0  0  0  0
   27.4800   26.6100   33.3700 N   0  0  0  0  0  0  0  0  0  0  0  0
   31.0001   28.2764   38.2267 C   0  0  0  0  0  0  0  0  0  0  0  0
   30.8923   27.2247   39.1466 C   0  0  0  0  0  0  0  0  0  0  0  0
   31.2225   27.4194   40.4954 C   0  0  0  0  0  0  0  0  0  0  0  0
   31.0850   26.2890   41.4819 C   0  0  0  0  0  0  0  0  0  0  0  0
   30.0738   26.5911   42.4246 O   0  0  0  0  0  0  0  0  0  0  0  0
   30.6068   27.2459   43.5608 C   0  0  0  0  0  0  0  0  0  0  0  0
   30.8599   28.7372   43.2969 C   0  0  0  0  0  0  0  0  0  0  0  0
   32.0344   28.9760   42.3388 C   0  0  0  0  0  0  0  0  0  0  0  0
   31.6594   28.6931   40.9082 C   0  0  0  0  0  0  0  0  0  0  0  0
   31.7553   29.6978   39.9960 N   0  0  0  0  0  0  0  0  0  0  0  0
   31.4408   29.5303   38.6822 C   0  0  0  0  0  0  0  0  0  0  0  0
   31.5396   30.6051   37.7911 O   0  0  0  0  0  0  0  0  0  0  0  0
   31.9770   31.8989   38.1884 C   0  0  0  0  0  0  0  0  0  0  0  0
  1  2  1  0
  2  3  2  0
  2  4  1  0
  4  5  2  0
  5  6  1  0
  6  7  2  0
  7  8  1  0
  8  9  2  0
  9 10  1  0
 10 11  2  0
 11 12  1  0
 12 13  2  0
 13 14  1  0
  8 15  1  0
 15 16  2  0
 16 17  1  0
 17 18  1  0
 18 19  1  0
 19 20  1  0
 20 21  1  0
 21 22  1  0
 22 23  1  0
 23 24  1  0
 24 25  2  0
 25 26  1  0
 26 27  1  0
 13  4  1  0
 25 15  1  0
 12  7  1  0
 23 17  2  0
M  END
>  <AAScore>  (1) 
31.60866881519592

>  <RootName>  (1) 
./4ZLY/04_DeltaGEst/trajectory_01/rank_01/lead_0138

$$$$
