confid_16
     RDKit          3D

 27 30  0  0  0  0  0  0  0  0999 V2000
   24.5500   26.3900   36.2500 N   0  0  0  0  0  0  0  0  0  0  0  0
   25.6000   26.1300   35.4000 C   0  0  0  0  0  0  0  0  0  0  0  0
   25.4300   25.4300   34.4200 O   0  0  0  0  0  0  0  0  0  0  0  0
   26.9800   26.6300   35.7100 C   0  0  0  0  0  0  0  0  0  0  0  0
   27.3200   26.8200   36.9800 N   0  0  0  0  0  0  0  0  0  0  0  0
   28.4700   27.4000   37.3100 N   0  0  0  0  0  0  0  0  0  0  0  0
   29.4000   27.6300   36.3700 C   0  0  0  0  0  0  0  0  0  0  0  0
   30.6600   28.0500   36.8000 C   0  0  0  0  0  0  0  0  0  0  0  0
   31.5700   28.3600   35.7800 C   0  0  0  0  0  0  0  0  0  0  0  0
   31.3700   28.1000   34.4300 C   0  0  0  0  0  0  0  0  0  0  0  0
   30.1200   27.5900   34.0500 C   0  0  0  0  0  0  0  0  0  0  0  0
   29.1500   27.3400   35.0300 C   0  0  0  0  0  0  0  0  0  0  0  0
   27.8800   26.8900   34.6600 C   0  0  0  0  0  0  0  0  0  0  0  0
   27.4800   26.6100   33.3700 N   0  0  0  0  0  0  0  0  0  0  0  0
   23.1881   25.8535   36.0986 C   0  0  0  0  0  0  0  0  0  0  0  0
   22.4957   26.4528   34.8623 C   0  0  0  0  0  0  0  0  0  0  0  0
   21.1217   25.7991   34.6298 C   0  0  0  0  0  0  0  0  0  0  0  0
   21.1275   24.3113   34.7215 N   0  0  0  0  0  0  0  0  0  0  0  0
   20.3972   23.6824   33.5993 C   0  0  0  0  0  0  0  0  0  0  0  0
   18.8742   23.7383   33.8426 C   0  0  0  0  0  0  0  0  0  0  0  0
   18.4835   22.9616   35.1209 C   0  0  0  0  0  0  0  0  0  0  0  0
   16.9996   22.5517   35.1095 C   0  0  0  0  0  0  0  0  0  0  0  0
   16.2463   23.3973   34.2638 O   0  0  0  0  0  0  0  0  0  0  0  0
   16.5825   23.1519   32.9068 C   0  0  0  0  0  0  0  0  0  0  0  0
   18.1066   23.1723   32.6377 C   0  0  0  0  0  0  0  0  0  0  0  0
   22.4729   23.7205   34.8738 C   0  0  0  0  0  0  0  0  0  0  0  0
   23.1767   24.3035   36.1044 C   0  0  0  0  0  0  0  0  0  0  0  0
  1  2  1  0
  2  3  2  0
  2  4  1  0
  4  5  2  0
  5  6  1  0
  6  7  2  0
  7  8  1  0
  8  9  2  0
  9 10  1  0
 10 11  2  0
 11 12  1  0
 12 13  2  0
 13 14  1  0
  1 15  1  0
 15 16  1  0
 16 17  1  0
 17 18  1  0
 18 19  1  0
 19 20  1  0
 20 21  1  0
 21 22  1  0
 22 23  1  0
 23 24  1  0
 24 25  1  0
 18 26  1  0
 26 27  1  0
 13  4  1  0
 27 15  1  0
 12  7  1  0
 25 20  1  0
M  END
>  <AAScore>  (1) 
517.0788139333181

>  <RootName>  (1) 
./4ZLY/04_DeltaGEst/trajectory_01/rank_00/lead_0257

$$$$
