confid_12
     RDKit          3D

 26 28  0  0  0  0  0  0  0  0999 V2000
   24.5500   26.3900   36.2500 N   0  0  0  0  0  0  0  0  0  0  0  0
   25.6000   26.1300   35.4000 C   0  0  0  0  0  0  0  0  0  0  0  0
   25.4300   25.4300   34.4200 O   0  0  0  0  0  0  0  0  0  0  0  0
   26.9800   26.6300   35.7100 C   0  0  0  0  0  0  0  0  0  0  0  0
   27.3200   26.8200   36.9800 N   0  0  0  0  0  0  0  0  0  0  0  0
   28.4700   27.4000   37.3100 N   0  0  0  0  0  0  0  0  0  0  0  0
   29.4000   27.6300   36.3700 C   0  0  0  0  0  0  0  0  0  0  0  0
   30.6600   28.0500   36.8000 C   0  0  0  0  0  0  0  0  0  0  0  0
   31.5700   28.3600   35.7800 C   0  0  0  0  0  0  0  0  0  0  0  0
   31.3700   28.1000   34.4300 C   0  0  0  0  0  0  0  0  0  0  0  0
   30.1200   27.5900   34.0500 C   0  0  0  0  0  0  0  0  0  0  0  0
   29.1500   27.3400   35.0300 C   0  0  0  0  0  0  0  0  0  0  0  0
   27.8800   26.8900   34.6600 C   0  0  0  0  0  0  0  0  0  0  0  0
   27.4800   26.6100   33.3700 N   0  0  0  0  0  0  0  0  0  0  0  0
   23.2182   25.9065   36.0192 C   0  0  0  0  0  0  0  0  0  0  0  0
   22.5511   25.1001   36.9739 C   0  0  0  0  0  0  0  0  0  0  0  0
   23.3288   24.5335   38.4651 S   0  0  0  0  0  6  0  0  0  0  0  0
   24.3689   25.5071   38.9447 O   0  0  0  0  0  0  0  0  0  0  0  0
   22.2752   24.4226   39.5324 O   0  0  0  0  0  0  0  0  0  0  0  0
   24.0484   22.9631   38.2059 N   0  0  0  0  0  0  0  0  0  0  0  0
   25.0762   23.0554   37.1618 C   0  0  0  0  0  0  0  0  0  0  0  0
   24.6487   22.4915   39.4602 C   0  0  0  0  0  0  0  0  0  0  0  0
   21.2456   24.6586   36.7033 C   0  0  0  0  0  0  0  0  0  0  0  0
   20.6012   25.0219   35.5192 C   0  0  0  0  0  0  0  0  0  0  0  0
   21.2552   25.8241   34.5853 C   0  0  0  0  0  0  0  0  0  0  0  0
   22.5561   26.2640   34.8325 C   0  0  0  0  0  0  0  0  0  0  0  0
  1  2  1  0
  2  3  2  0
  2  4  1  0
  4  5  2  0
  5  6  1  0
  6  7  2  0
  7  8  1  0
  8  9  2  0
  9 10  1  0
 10 11  2  0
 11 12  1  0
 12 13  2  0
 13 14  1  0
  1 15  1  0
 15 16  2  0
 16 17  1  0
 17 18  2  0
 17 19  2  0
 17 20  1  0
 20 21  1  0
 20 22  1  0
 16 23  1  0
 23 24  2  0
 24 25  1  0
 25 26  2  0
 13  4  1  0
 26 15  1  0
 12  7  1  0
M  END
>  <AAScore>  (1) 
3407.5319322644696

>  <RootName>  (1) 
./4ZLY/04_DeltaGEst/trajectory_01/rank_00/lead_0073

$$$$
