confid_9
     RDKit          3D

 27 30  0  0  0  0  0  0  0  0999 V2000
   25.3300   26.2600   34.7600 N   0  0  0  0  0  0  0  0  0  0  0  0
   26.1200   25.9200   33.6900 C   0  0  0  0  0  0  0  0  0  0  0  0
   25.6300   25.1100   32.9400 O   0  0  0  0  0  0  0  0  0  0  0  0
   27.5200   26.3800   33.4600 C   0  0  0  0  0  0  0  0  0  0  0  0
   28.1600   26.6300   34.6100 N   0  0  0  0  0  0  0  0  0  0  0  0
   29.4800   26.8500   34.5700 N   0  0  0  0  0  0  0  0  0  0  0  0
   30.1900   26.7800   33.4400 C   0  0  0  0  0  0  0  0  0  0  0  0
   31.5600   27.0500   33.5000 C   0  0  0  0  0  0  0  0  0  0  0  0
   32.2700   27.2400   32.3100 C   0  0  0  0  0  0  0  0  0  0  0  0
   31.6100   27.2500   31.0800 C   0  0  0  0  0  0  0  0  0  0  0  0
   30.2700   26.8700   31.0600 C   0  0  0  0  0  0  0  0  0  0  0  0
   29.5100   26.6900   32.2300 C   0  0  0  0  0  0  0  0  0  0  0  0
   28.1400   26.4100   32.2000 C   0  0  0  0  0  0  0  0  0  0  0  0
   27.4300   26.1300   31.0500 N   0  0  0  0  0  0  0  0  0  0  0  0
   23.9305   25.9574   34.9269 C   0  0  0  0  0  0  0  0  0  0  0  0
   23.2180   25.3320   33.9491 N   0  0  0  0  0  0  0  0  0  0  0  0
   21.8956   25.0649   34.1005 C   0  0  0  0  0  0  0  0  0  0  0  0
   21.2350   25.4456   35.2722 C   0  0  0  0  0  0  0  0  0  0  0  0
   19.7821   25.0987   35.4842 C   0  0  0  0  0  0  0  0  0  0  0  0
   19.1742   25.9355   36.5406 N   0  0  0  0  0  0  0  0  0  0  0  0
   17.7766   25.5173   36.7905 C   0  0  0  0  0  0  0  0  0  0  0  0
   16.9276   26.6973   37.2843 C   0  0  0  0  0  0  0  0  0  0  0  0
   16.8660   27.8266   36.2569 C   0  0  0  0  0  0  0  0  0  0  0  0
   19.9835   25.8562   37.7745 C   0  0  0  0  0  0  0  0  0  0  0  0
   21.3334   26.5417   37.5498 C   0  0  0  0  0  0  0  0  0  0  0  0
   21.9860   26.0694   36.2819 C   0  0  0  0  0  0  0  0  0  0  0  0
   23.3053   26.3247   36.0775 N   0  0  0  0  0  0  0  0  0  0  0  0
  1  2  1  0
  2  3  2  0
  2  4  1  0
  4  5  2  0
  5  6  1  0
  6  7  2  0
  7  8  1  0
  8  9  2  0
  9 10  1  0
 10 11  2  0
 11 12  1  0
 12 13  2  0
 13 14  1  0
  1 15  1  0
 15 16  2  0
 16 17  1  0
 17 18  2  0
 18 19  1  0
 19 20  1  0
 20 21  1  0
 21 22  1  0
 22 23  1  0
 20 24  1  0
 24 25  1  0
 25 26  1  0
 26 27  2  0
 13  4  1  0
 27 15  1  0
 12  7  1  0
 26 18  1  0
M  END
>  <AAScore>  (1) 
3354.652858660904

>  <RootName>  (1) 
./4ZLY/04_DeltaGEst/trajectory_03/rank_00/lead_0489

$$$$
