confid_14
     RDKit          3D

 29 32  0  0  0  0  0  0  0  0999 V2000
   24.2000   26.2400   35.6900 N   0  0  0  0  0  0  0  0  0  0  0  0
   24.8500   26.2800   34.4800 C   0  0  0  0  0  0  0  0  0  0  0  0
   24.3100   25.7400   33.5400 O   0  0  0  0  0  0  0  0  0  0  0  0
   26.1800   26.9700   34.4700 C   0  0  0  0  0  0  0  0  0  0  0  0
   26.6500   27.6000   35.5500 N   0  0  0  0  0  0  0  0  0  0  0  0
   27.7900   28.2700   35.6200 N   0  0  0  0  0  0  0  0  0  0  0  0
   28.5400   28.3000   34.5100 C   0  0  0  0  0  0  0  0  0  0  0  0
   29.7700   28.9400   34.5600 C   0  0  0  0  0  0  0  0  0  0  0  0
   30.7000   28.8900   33.5000 C   0  0  0  0  0  0  0  0  0  0  0  0
   30.3700   28.1400   32.3700 C   0  0  0  0  0  0  0  0  0  0  0  0
   29.1200   27.5200   32.2800 C   0  0  0  0  0  0  0  0  0  0  0  0
   28.2100   27.6100   33.3300 C   0  0  0  0  0  0  0  0  0  0  0  0
   26.9700   26.9700   33.3100 C   0  0  0  0  0  0  0  0  0  0  0  0
   26.5300   26.2400   32.2200 N   0  0  0  0  0  0  0  0  0  0  0  0
   30.1273   29.7009   35.7259 N   0  0  0  0  0  0  0  0  0  0  0  0
   31.2435   29.2647   36.5734 C   0  0  0  0  0  0  0  0  0  0  0  0
   32.2620   30.4003   36.7096 C   0  0  0  0  0  0  0  0  0  0  0  0
   31.5970   31.6805   36.9898 N   0  0  0  0  0  0  0  0  0  0  0  0
   32.3928   32.8697   37.1111 C   0  0  0  0  0  0  0  0  0  0  0  0
   33.0292   33.3939   35.9805 C   0  0  0  0  0  0  0  0  0  0  0  0
   33.8034   34.5593   36.0730 C   0  0  0  0  0  0  0  0  0  0  0  0
   34.4776   35.1089   34.8449 C   0  0  0  0  0  0  0  0  0  0  0  0
   33.9341   35.1853   37.3312 C   0  0  0  0  0  0  0  0  0  0  0  0
   34.7547   36.4286   37.5117 C   0  0  0  0  0  0  0  0  0  0  0  0
   33.3068   34.6533   38.4155 N   0  0  0  0  0  0  0  0  0  0  0  0
   32.5534   33.5226   38.3478 C   0  0  0  0  0  0  0  0  0  0  0  0
   31.8837   33.0234   39.5920 C   0  0  0  0  0  0  0  0  0  0  0  0
   30.1368   31.7586   37.1137 C   0  0  0  0  0  0  0  0  0  0  0  0
   29.4749   30.9977   35.9600 C   0  0  0  0  0  0  0  0  0  0  0  0
  1  2  1  0
  2  3  2  0
  2  4  1  0
  4  5  2  0
  5  6  1  0
  6  7  2  0
  7  8  1  0
  8  9  2  0
  9 10  1  0
 10 11  2  0
 11 12  1  0
 12 13  2  0
 13 14  1  0
  8 15  1  0
 15 16  1  0
 16 17  1  0
 17 18  1  0
 18 19  1  0
 19 20  2  0
 20 21  1  0
 21 22  1  0
 21 23  2  0
 23 24  1  0
 23 25  1  0
 25 26  2  0
 26 27  1  0
 18 28  1  0
 28 29  1  0
 13  4  1  0
 29 15  1  0
 12  7  1  0
 26 19  1  0
M  END
>  <AAScore>  (1) 
-8.258745783693495

>  <RootName>  (1) 
./4ZLY/04_DeltaGEst/trajectory_04/rank_01/lead_0445

$$$$
