confid_10
     RDKit          3D

 30 33  0  0  0  0  0  0  0  0999 V2000
   24.6900   26.1200   35.5300 N   0  0  0  0  0  0  0  0  0  0  0  0
   25.6600   25.6700   34.6600 C   0  0  0  0  0  0  0  0  0  0  0  0
   25.2400   25.0100   33.7200 O   0  0  0  0  0  0  0  0  0  0  0  0
   27.0300   26.2200   34.8800 C   0  0  0  0  0  0  0  0  0  0  0  0
   27.3500   26.7300   36.0700 N   0  0  0  0  0  0  0  0  0  0  0  0
   28.5700   27.1800   36.3300 N   0  0  0  0  0  0  0  0  0  0  0  0
   29.5300   27.1100   35.3900 C   0  0  0  0  0  0  0  0  0  0  0  0
   30.8300   27.5700   35.6500 C   0  0  0  0  0  0  0  0  0  0  0  0
   31.8500   27.5400   34.6900 C   0  0  0  0  0  0  0  0  0  0  0  0
   31.5100   27.1200   33.4000 C   0  0  0  0  0  0  0  0  0  0  0  0
   30.2200   26.6300   33.1100 C   0  0  0  0  0  0  0  0  0  0  0  0
   29.2400   26.6600   34.1000 C   0  0  0  0  0  0  0  0  0  0  0  0
   27.9300   26.2600   33.8100 C   0  0  0  0  0  0  0  0  0  0  0  0
   27.5200   25.7100   32.6100 N   0  0  0  0  0  0  0  0  0  0  0  0
   23.3654   26.5121   35.1230 C   0  0  0  0  0  0  0  0  0  0  0  0
   23.1255   26.7671   33.8627 N   0  0  0  0  0  0  0  0  0  0  0  0
   21.8384   27.1024   33.3271 C   0  0  0  0  0  0  0  0  0  0  0  0
   20.7880   26.2750   33.4577 C   0  0  0  0  0  0  0  0  0  0  0  0
   20.9308   24.9303   34.1112 C   0  0  0  0  0  0  0  0  0  0  0  0
   20.4538   25.0137   35.5045 N   0  0  0  0  0  0  0  0  0  0  0  0
   19.2279   25.8459   35.7047 C   0  0  0  0  0  0  0  0  0  0  0  0
   18.5005   26.2217   34.3865 C   0  0  0  0  0  0  0  0  0  0  0  0
   19.4455   26.7830   33.4096 N   0  0  0  0  0  0  0  0  0  0  0  0
   18.9530   27.6010   32.2911 C   0  0  0  0  0  0  0  0  0  0  0  0
   18.2323   26.7474   31.2343 C   0  0  0  0  0  0  0  0  0  0  0  0
   19.1400   25.6988   30.5845 C   0  0  0  0  0  0  0  0  0  0  0  0
   20.2692   26.3275   30.0132 O   0  0  0  0  0  0  0  0  0  0  0  0
   21.1674   25.3439   29.5524 C   0  0  0  0  0  0  0  0  0  0  0  0
   21.5401   25.3251   36.4643 C   0  0  0  0  0  0  0  0  0  0  0  0
   22.2890   26.6529   36.1863 C   0  0  0  0  0  0  0  0  0  0  0  0
  1  2  1  0
  2  3  2  0
  2  4  1  0
  4  5  2  0
  5  6  1  0
  6  7  2  0
  7  8  1  0
  8  9  2  0
  9 10  1  0
 10 11  2  0
 11 12  1  0
 12 13  2  0
 13 14  1  0
  1 15  1  0
 15 16  2  0
 16 17  1  0
 17 18  2  0
 18 19  1  0
 19 20  1  0
 20 21  1  0
 21 22  1  0
 22 23  1  0
 23 24  1  0
 24 25  1  0
 25 26  1  0
 26 27  1  0
 27 28  1  0
 20 29  1  0
 29 30  1  0
 13  4  1  0
 30 15  1  0
 12  7  1  0
 23 18  1  0
M  END
>  <AAScore>  (1) 
3637.734993246858

>  <RootName>  (1) 
./4ZLY/04_DeltaGEst/trajectory_02/rank_00/lead_0082

$$$$
