confid_3
     RDKit          3D

 27 30  0  0  0  0  0  0  0  0999 V2000
   24.5700   26.8800   35.5900 N   0  0  0  0  0  0  0  0  0  0  0  0
   25.5000   26.4000   34.6900 C   0  0  0  0  0  0  0  0  0  0  0  0
   25.1700   25.5200   33.9100 O   0  0  0  0  0  0  0  0  0  0  0  0
   26.8400   27.0200   34.7400 C   0  0  0  0  0  0  0  0  0  0  0  0
   27.3800   27.2800   35.9400 N   0  0  0  0  0  0  0  0  0  0  0  0
   28.6200   27.7400   36.0300 N   0  0  0  0  0  0  0  0  0  0  0  0
   29.3800   28.0000   34.9600 C   0  0  0  0  0  0  0  0  0  0  0  0
   30.6700   28.5000   35.1300 C   0  0  0  0  0  0  0  0  0  0  0  0
   31.5400   28.6100   34.0300 C   0  0  0  0  0  0  0  0  0  0  0  0
   31.0900   28.2200   32.7700 C   0  0  0  0  0  0  0  0  0  0  0  0
   29.8000   27.7000   32.6000 C   0  0  0  0  0  0  0  0  0  0  0  0
   28.9600   27.5500   33.7100 C   0  0  0  0  0  0  0  0  0  0  0  0
   27.6600   27.0300   33.5900 C   0  0  0  0  0  0  0  0  0  0  0  0
   27.1600   26.7400   32.3400 N   0  0  0  0  0  0  0  0  0  0  0  0
   23.3103   26.2536   35.8901 C   0  0  0  0  0  0  0  0  0  0  0  0
   23.0125   24.9901   35.3903 N   0  0  0  0  0  0  0  0  0  0  0  0
   21.8363   24.3292   35.6482 C   0  0  0  0  0  0  0  0  0  0  0  0
   20.9440   24.9943   36.4508 C   0  0  0  0  0  0  0  0  0  0  0  0
   19.6253   25.0330   37.1479 C   0  0  2  0  0  0  0  0  0  0  0  0
   19.5528   24.0819   38.1528 F   0  0  0  0  0  0  0  0  0  0  0  0
   18.4292   24.9911   36.1798 C   0  0  0  0  0  0  0  0  0  0  0  0
   18.3445   23.6603   35.5342 N   0  0  0  0  0  0  0  0  0  0  0  0
   17.3812   22.7902   36.2301 C   0  0  0  0  0  0  0  0  0  0  0  0
   17.9647   23.7842   34.1179 C   0  0  0  0  0  0  0  0  0  0  0  0
   19.9595   26.3576   37.6621 C   0  0  0  0  0  0  0  0  0  0  0  0
   21.2680   26.2700   36.9496 C   0  0  0  0  0  0  0  0  0  0  0  0
   22.4170   26.9205   36.7002 N   0  0  0  0  0  0  0  0  0  0  0  0
  1  2  1  0
  2  3  2  0
  2  4  1  0
  4  5  2  0
  5  6  1  0
  6  7  2  0
  7  8  1  0
  8  9  2  0
  9 10  1  0
 10 11  2  0
 11 12  1  0
 12 13  2  0
 13 14  1  0
  1 15  1  0
 15 16  2  0
 16 17  1  0
 17 18  2  0
 18 19  1  0
 19 20  1  1
 19 21  1  0
 21 22  1  0
 22 23  1  0
 22 24  1  0
 19 25  1  0
 25 26  1  0
 26 27  2  0
 13  4  1  0
 27 15  1  0
 12  7  1  0
 26 18  1  0
M  END
>  <AAScore>  (1) 
35559.18886484079

>  <RootName>  (1) 
./4ZLY/04_DeltaGEst/trajectory_05/rank_00/lead_0147

$$$$
