confid_2
     RDKit          3D

 29 32  0  0  0  0  0  0  0  0999 V2000
   24.5700   26.8800   35.5900 N   0  0  0  0  0  0  0  0  0  0  0  0
   25.5000   26.4000   34.6900 C   0  0  0  0  0  0  0  0  0  0  0  0
   25.1700   25.5200   33.9100 O   0  0  0  0  0  0  0  0  0  0  0  0
   26.8400   27.0200   34.7400 C   0  0  0  0  0  0  0  0  0  0  0  0
   27.3800   27.2800   35.9400 N   0  0  0  0  0  0  0  0  0  0  0  0
   28.6200   27.7400   36.0300 N   0  0  0  0  0  0  0  0  0  0  0  0
   29.3800   28.0000   34.9600 C   0  0  0  0  0  0  0  0  0  0  0  0
   30.6700   28.5000   35.1300 C   0  0  0  0  0  0  0  0  0  0  0  0
   31.5400   28.6100   34.0300 C   0  0  0  0  0  0  0  0  0  0  0  0
   31.0900   28.2200   32.7700 C   0  0  0  0  0  0  0  0  0  0  0  0
   29.8000   27.7000   32.6000 C   0  0  0  0  0  0  0  0  0  0  0  0
   28.9600   27.5500   33.7100 C   0  0  0  0  0  0  0  0  0  0  0  0
   27.6600   27.0300   33.5900 C   0  0  0  0  0  0  0  0  0  0  0  0
   27.1600   26.7400   32.3400 N   0  0  0  0  0  0  0  0  0  0  0  0
   32.8696   29.1453   34.2019 N   0  0  0  0  0  0  0  0  0  0  0  0
   33.0656   30.3645   35.0055 C   0  0  0  0  0  0  0  0  0  0  0  0
   34.4608   30.9624   34.7803 C   0  0  0  0  0  0  0  0  0  0  0  0
   34.7895   30.9240   33.3468 N   0  0  0  0  0  0  0  0  0  0  0  0
   34.9241   32.1546   32.6057 C   0  0  0  0  0  0  0  0  0  0  0  0
   34.3171   33.1874   33.0005 O   0  0  0  0  0  0  0  0  0  0  0  0
   35.7332   32.2333   31.3684 C   0  0  0  0  0  0  0  0  0  0  0  0
   36.9465   31.5328   31.2533 C   0  0  0  0  0  0  0  0  0  0  0  0
   37.7067   31.6245   30.0820 C   0  0  0  0  0  0  0  0  0  0  0  0
   37.2674   32.4226   29.0217 C   0  0  0  0  0  0  0  0  0  0  0  0
   36.0704   33.1367   29.1329 C   0  0  0  0  0  0  0  0  0  0  0  0
   35.5291   34.1562   27.8107 Cl  0  0  0  0  0  0  0  0  0  0  0  0
   35.3097   33.0495   30.3045 C   0  0  0  0  0  0  0  0  0  0  0  0
   34.6813   29.6423   32.6238 C   0  0  0  0  0  0  0  0  0  0  0  0
   34.0205   28.5650   33.4928 C   0  0  0  0  0  0  0  0  0  0  0  0
  1  2  1  0
  2  3  2  0
  2  4  1  0
  4  5  2  0
  5  6  1  0
  6  7  2  0
  7  8  1  0
  8  9  2  0
  9 10  1  0
 10 11  2  0
 11 12  1  0
 12 13  2  0
 13 14  1  0
  9 15  1  0
 15 16  1  0
 16 17  1  0
 17 18  1  0
 18 19  1  0
 19 20  2  0
 19 21  1  0
 21 22  2  0
 22 23  1  0
 23 24  2  0
 24 25  1  0
 25 26  1  0
 25 27  2  0
 18 28  1  0
 28 29  1  0
 13  4  1  0
 29 15  1  0
 12  7  1  0
 27 21  1  0
M  END
>  <AAScore>  (1) 
-5.560200552321726

>  <RootName>  (1) 
./4ZLY/04_DeltaGEst/trajectory_05/rank_01/lead_0199

$$$$
