confid_5
     RDKit          3D

 26 28  0  0  0  0  0  0  0  0999 V2000
   24.5700   26.8800   35.5900 N   0  0  0  0  0  0  0  0  0  0  0  0
   25.5000   26.4000   34.6900 C   0  0  0  0  0  0  0  0  0  0  0  0
   25.1700   25.5200   33.9100 O   0  0  0  0  0  0  0  0  0  0  0  0
   26.8400   27.0200   34.7400 C   0  0  0  0  0  0  0  0  0  0  0  0
   27.3800   27.2800   35.9400 N   0  0  0  0  0  0  0  0  0  0  0  0
   28.6200   27.7400   36.0300 N   0  0  0  0  0  0  0  0  0  0  0  0
   29.3800   28.0000   34.9600 C   0  0  0  0  0  0  0  0  0  0  0  0
   30.6700   28.5000   35.1300 C   0  0  0  0  0  0  0  0  0  0  0  0
   31.5400   28.6100   34.0300 C   0  0  0  0  0  0  0  0  0  0  0  0
   31.0900   28.2200   32.7700 C   0  0  0  0  0  0  0  0  0  0  0  0
   29.8000   27.7000   32.6000 C   0  0  0  0  0  0  0  0  0  0  0  0
   28.9600   27.5500   33.7100 C   0  0  0  0  0  0  0  0  0  0  0  0
   27.6600   27.0300   33.5900 C   0  0  0  0  0  0  0  0  0  0  0  0
   27.1600   26.7400   32.3400 N   0  0  0  0  0  0  0  0  0  0  0  0
   23.2051   26.4115   35.6969 C   0  0  0  0  0  0  0  0  0  0  0  0
   22.6492   25.7200   34.6696 N   0  0  0  0  0  0  0  0  0  0  0  0
   21.3685   25.2815   34.6769 C   0  0  0  0  0  0  0  0  0  0  0  0
   20.5302   25.5547   35.7777 C   0  0  0  0  0  0  0  0  0  0  0  0
   19.1899   25.1304   35.8190 O   0  0  0  0  0  0  0  0  0  0  0  0
   18.5122   24.3756   34.8210 C   0  0  0  0  0  0  0  0  0  0  0  0
   21.0676   26.2816   36.8716 C   0  0  0  0  0  0  0  0  0  0  0  0
   20.3115   26.6260   38.0116 O   0  0  0  0  0  0  0  0  0  0  0  0
   18.9421   26.3249   38.2604 C   0  0  0  0  0  0  0  0  0  0  0  0
   22.4216   26.6922   36.8397 C   0  0  0  0  0  0  0  0  0  0  0  0
   23.0180   27.4438   38.0087 C   0  0  0  0  0  0  0  0  0  0  0  0
   20.9292   24.5919   33.5966 F   0  0  0  0  0  0  0  0  0  0  0  0
  1  2  1  0
  2  3  2  0
  2  4  1  0
  4  5  2  0
  5  6  1  0
  6  7  2  0
  7  8  1  0
  8  9  2  0
  9 10  1  0
 10 11  2  0
 11 12  1  0
 12 13  2  0
 13 14  1  0
  1 15  1  0
 15 16  2  0
 16 17  1  0
 17 18  2  0
 18 19  1  0
 19 20  1  0
 18 21  1  0
 21 22  1  0
 22 23  1  0
 21 24  2  0
 24 25  1  0
 17 26  1  0
 13  4  1  0
 24 15  1  0
 12  7  1  0
M  END
>  <AAScore>  (1) 
1920.382310240376

>  <RootName>  (1) 
./4ZLY/04_DeltaGEst/trajectory_05/rank_00/lead_0113

$$$$
