confid_6
     RDKit          3D

 27 30  0  0  0  0  0  0  0  0999 V2000
   24.4800   26.1000   36.1300 N   0  0  0  0  0  0  0  0  0  0  0  0
   25.2500   26.2500   34.9900 C   0  0  0  0  0  0  0  0  0  0  0  0
   24.7400   25.7600   33.9900 O   0  0  0  0  0  0  0  0  0  0  0  0
   26.5900   26.8900   34.9600 C   0  0  0  0  0  0  0  0  0  0  0  0
   27.0600   27.2400   36.1600 N   0  0  0  0  0  0  0  0  0  0  0  0
   28.3000   27.7100   36.2400 N   0  0  0  0  0  0  0  0  0  0  0  0
   29.0500   27.9600   35.1500 C   0  0  0  0  0  0  0  0  0  0  0  0
   30.3400   28.4900   35.2600 C   0  0  0  0  0  0  0  0  0  0  0  0
   31.1100   28.8200   34.1400 C   0  0  0  0  0  0  0  0  0  0  0  0
   30.5200   28.6700   32.8800 C   0  0  0  0  0  0  0  0  0  0  0  0
   29.2900   28.0200   32.7700 C   0  0  0  0  0  0  0  0  0  0  0  0
   28.5200   27.7100   33.8900 C   0  0  0  0  0  0  0  0  0  0  0  0
   27.2700   27.0800   33.7600 C   0  0  0  0  0  0  0  0  0  0  0  0
   26.7500   26.8800   32.4900 N   0  0  0  0  0  0  0  0  0  0  0  0
   23.0430   26.0149   36.1559 C   0  0  0  0  0  0  0  0  0  0  0  0
   22.2479   26.6426   35.1802 C   0  0  0  0  0  0  0  0  0  0  0  0
   20.8486   26.5520   35.2560 C   0  0  0  0  0  0  0  0  0  0  0  0
   20.0157   27.1691   34.2555 N   0  0  0  0  0  0  0  0  0  0  0  0
   18.9935   28.1433   34.6533 C   0  0  0  0  0  0  0  0  0  0  0  0
   17.7923   28.0510   33.7104 C   0  0  0  0  0  0  0  0  0  0  0  0
   18.2358   28.1774   32.3082 N   0  0  0  0  0  0  0  0  0  0  0  0
   17.0702   28.1641   31.4113 C   0  0  0  0  0  0  0  0  0  0  0  0
   19.1502   27.0722   31.9605 C   0  0  0  0  0  0  0  0  0  0  0  0
   20.4012   27.1231   32.8408 C   0  0  0  0  0  0  0  0  0  0  0  0
   20.2693   25.8456   36.3187 C   0  0  0  0  0  0  0  0  0  0  0  0
   21.0882   25.2575   37.2831 C   0  0  0  0  0  0  0  0  0  0  0  0
   22.4397   25.3575   37.1838 N   0  0  0  0  0  0  0  0  0  0  0  0
  1  2  1  0
  2  3  2  0
  2  4  1  0
  4  5  2  0
  5  6  1  0
  6  7  2  0
  7  8  1  0
  8  9  2  0
  9 10  1  0
 10 11  2  0
 11 12  1  0
 12 13  2  0
 13 14  1  0
  1 15  1  0
 15 16  2  0
 16 17  1  0
 17 18  1  0
 18 19  1  0
 19 20  1  0
 20 21  1  0
 21 22  1  0
 21 23  1  0
 23 24  1  0
 17 25  2  0
 25 26  1  0
 26 27  2  0
 13  4  1  0
 27 15  1  0
 12  7  1  0
 24 18  1  0
M  END
>  <AAScore>  (1) 
258.2948419173968

>  <RootName>  (1) 
./4ZLY/04_DeltaGEst/trajectory_00/rank_00/lead_0097

$$$$
