confid_14
     RDKit          3D

 26 29  0  0  0  0  0  0  0  0999 V2000
   24.6900   26.1200   35.5300 N   0  0  0  0  0  0  0  0  0  0  0  0
   25.6600   25.6700   34.6600 C   0  0  0  0  0  0  0  0  0  0  0  0
   25.2400   25.0100   33.7200 O   0  0  0  0  0  0  0  0  0  0  0  0
   27.0300   26.2200   34.8800 C   0  0  0  0  0  0  0  0  0  0  0  0
   27.3500   26.7300   36.0700 N   0  0  0  0  0  0  0  0  0  0  0  0
   28.5700   27.1800   36.3300 N   0  0  0  0  0  0  0  0  0  0  0  0
   29.5300   27.1100   35.3900 C   0  0  0  0  0  0  0  0  0  0  0  0
   30.8300   27.5700   35.6500 C   0  0  0  0  0  0  0  0  0  0  0  0
   31.8500   27.5400   34.6900 C   0  0  0  0  0  0  0  0  0  0  0  0
   31.5100   27.1200   33.4000 C   0  0  0  0  0  0  0  0  0  0  0  0
   30.2200   26.6300   33.1100 C   0  0  0  0  0  0  0  0  0  0  0  0
   29.2400   26.6600   34.1000 C   0  0  0  0  0  0  0  0  0  0  0  0
   27.9300   26.2600   33.8100 C   0  0  0  0  0  0  0  0  0  0  0  0
   27.5200   25.7100   32.6100 N   0  0  0  0  0  0  0  0  0  0  0  0
   23.3031   25.8552   35.3753 C   0  0  0  0  0  0  0  0  0  0  0  0
   22.4323   26.3315   36.2679 N   0  0  0  0  0  0  0  0  0  0  0  0
   21.1060   26.1214   36.1867 C   0  0  0  0  0  0  0  0  0  0  0  0
   20.5979   25.3768   35.1331 C   0  0  0  0  0  0  0  0  0  0  0  0
   20.0549   24.5810   34.0069 C   0  0  1  0  0  0  0  0  0  0  0  0
   19.6541   23.2823   34.2576 F   0  0  0  0  0  0  0  0  0  0  0  0
   19.4131   25.3348   32.8778 C   0  0  0  0  0  0  0  0  0  0  0  0
   18.9467   24.5078   31.8932 F   0  0  0  0  0  0  0  0  0  0  0  0
   18.3405   26.0788   33.3858 F   0  0  0  0  0  0  0  0  0  0  0  0
   20.2866   26.2614   32.3457 F   0  0  0  0  0  0  0  0  0  0  0  0
   21.4918   24.8917   34.2227 C   0  0  0  0  0  0  0  0  0  0  0  0
   22.8206   25.1296   34.3461 N   0  0  0  0  0  0  0  0  0  0  0  0
  1  2  1  0
  2  3  2  0
  2  4  1  0
  4  5  2  0
  5  6  1  0
  6  7  2  0
  7  8  1  0
  8  9  2  0
  9 10  1  0
 10 11  2  0
 11 12  1  0
 12 13  2  0
 13 14  1  0
  1 15  1  0
 15 16  2  0
 16 17  1  0
 17 18  2  0
 18 19  1  0
 19 20  1  1
 19 21  1  0
 21 22  1  0
 21 23  1  0
 21 24  1  0
 19 25  1  0
 25 26  2  0
 13  4  1  0
 26 15  1  0
 12  7  1  0
 25 18  1  0
M  END
>  <AAScore>  (1) 
86.43055772383134

>  <RootName>  (1) 
./4ZLY/04_DeltaGEst/trajectory_02/rank_00/lead_0403

$$$$
