confid_0
     RDKit          3D

 27 30  0  0  0  0  0  0  0  0999 V2000
   24.5700   26.8800   35.5900 N   0  0  0  0  0  0  0  0  0  0  0  0
   25.5000   26.4000   34.6900 C   0  0  0  0  0  0  0  0  0  0  0  0
   25.1700   25.5200   33.9100 O   0  0  0  0  0  0  0  0  0  0  0  0
   26.8400   27.0200   34.7400 C   0  0  0  0  0  0  0  0  0  0  0  0
   27.3800   27.2800   35.9400 N   0  0  0  0  0  0  0  0  0  0  0  0
   28.6200   27.7400   36.0300 N   0  0  0  0  0  0  0  0  0  0  0  0
   29.3800   28.0000   34.9600 C   0  0  0  0  0  0  0  0  0  0  0  0
   30.6700   28.5000   35.1300 C   0  0  0  0  0  0  0  0  0  0  0  0
   31.5400   28.6100   34.0300 C   0  0  0  0  0  0  0  0  0  0  0  0
   31.0900   28.2200   32.7700 C   0  0  0  0  0  0  0  0  0  0  0  0
   29.8000   27.7000   32.6000 C   0  0  0  0  0  0  0  0  0  0  0  0
   28.9600   27.5500   33.7100 C   0  0  0  0  0  0  0  0  0  0  0  0
   27.6600   27.0300   33.5900 C   0  0  0  0  0  0  0  0  0  0  0  0
   27.1600   26.7400   32.3400 N   0  0  0  0  0  0  0  0  0  0  0  0
   23.1755   26.5133   35.5752 C   0  0  0  0  0  0  0  0  0  0  0  0
   22.5803   26.2070   34.3909 N   0  0  0  0  0  0  0  0  0  0  0  0
   21.2626   25.9109   34.2902 C   0  0  0  0  0  0  0  0  0  0  0  0
   20.4432   25.9560   35.4219 C   0  0  0  0  0  0  0  0  0  0  0  0
   19.0004   25.6469   35.3270 C   0  0  0  0  0  0  0  0  0  0  0  0
   18.5183   25.1578   34.2683 O   0  0  0  0  0  0  0  0  0  0  0  0
   18.1547   25.8918   36.4613 N   0  0  0  0  0  0  0  0  0  0  0  0
   18.6691   26.7307   37.5475 C   0  0  0  0  0  0  0  0  0  0  0  0
   20.1086   26.3358   37.8977 C   0  0  0  0  0  0  0  0  0  0  0  0
   21.0048   26.3012   36.6696 C   0  0  0  0  0  0  0  0  0  0  0  0
   22.4052   26.5169   36.7640 C   0  0  0  0  0  0  0  0  0  0  0  0
   23.0690   26.7528   38.1023 C   0  0  0  0  0  0  0  0  0  0  0  0
   16.7921   25.3573   36.4980 C   0  0  0  0  0  0  0  0  0  0  0  0
  1  2  1  0
  2  3  2  0
  2  4  1  0
  4  5  2  0
  5  6  1  0
  6  7  2  0
  7  8  1  0
  8  9  2  0
  9 10  1  0
 10 11  2  0
 11 12  1  0
 12 13  2  0
 13 14  1  0
  1 15  1  0
 15 16  2  0
 16 17  1  0
 17 18  2  0
 18 19  1  0
 19 20  2  0
 19 21  1  0
 21 22  1  0
 22 23  1  0
 23 24  1  0
 24 25  2  0
 25 26  1  0
 21 27  1  0
 13  4  1  0
 25 15  1  0
 12  7  1  0
 24 18  1  0
M  END
>  <AAScore>  (1) 
25256.94634294643

>  <RootName>  (1) 
./4ZLY/04_DeltaGEst/trajectory_05/rank_00/lead_0064

$$$$
