confid_4
     RDKit          3D

 27 30  0  0  0  0  0  0  0  0999 V2000
   24.6900   26.1200   35.5300 N   0  0  0  0  0  0  0  0  0  0  0  0
   25.6600   25.6700   34.6600 C   0  0  0  0  0  0  0  0  0  0  0  0
   25.2400   25.0100   33.7200 O   0  0  0  0  0  0  0  0  0  0  0  0
   27.0300   26.2200   34.8800 C   0  0  0  0  0  0  0  0  0  0  0  0
   27.3500   26.7300   36.0700 N   0  0  0  0  0  0  0  0  0  0  0  0
   28.5700   27.1800   36.3300 N   0  0  0  0  0  0  0  0  0  0  0  0
   29.5300   27.1100   35.3900 C   0  0  0  0  0  0  0  0  0  0  0  0
   30.8300   27.5700   35.6500 C   0  0  0  0  0  0  0  0  0  0  0  0
   31.8500   27.5400   34.6900 C   0  0  0  0  0  0  0  0  0  0  0  0
   31.5100   27.1200   33.4000 C   0  0  0  0  0  0  0  0  0  0  0  0
   30.2200   26.6300   33.1100 C   0  0  0  0  0  0  0  0  0  0  0  0
   29.2400   26.6600   34.1000 C   0  0  0  0  0  0  0  0  0  0  0  0
   27.9300   26.2600   33.8100 C   0  0  0  0  0  0  0  0  0  0  0  0
   27.5200   25.7100   32.6100 N   0  0  0  0  0  0  0  0  0  0  0  0
   23.2804   26.1866   35.2316 C   0  0  0  0  0  0  0  0  0  0  0  0
   22.4352   25.8458   36.2301 N   0  0  0  0  0  0  0  0  0  0  0  0
   21.0918   25.7780   36.3437 C   0  0  0  0  0  0  0  0  0  0  0  0
   20.6314   25.4310   37.4647 O   0  0  0  0  0  0  0  0  0  0  0  0
   20.1670   26.0326   35.3301 C   0  0  0  0  0  0  0  0  0  0  0  0
   20.3608   26.4608   34.0081 C   0  0  0  0  0  0  0  0  0  0  0  0
   21.6070   26.7764   33.4458 C   0  0  0  0  0  0  0  0  0  0  0  0
   22.8817   26.6726   33.9857 C   0  0  0  0  0  0  0  0  0  0  0  0
   19.1826   26.6168   33.1717 N   0  0  0  0  0  0  0  0  0  0  0  0
   17.9831   25.7945   33.2872 C   0  0  0  0  0  0  0  0  0  0  0  0
   17.1284   26.1390   32.0760 C   0  0  0  0  0  0  0  0  0  0  0  0
   17.6168   27.5058   31.6194 C   0  0  0  0  0  0  0  0  0  0  0  0
   19.0607   27.5900   32.0913 C   0  0  0  0  0  0  0  0  0  0  0  0
  1  2  1  0
  2  3  2  0
  2  4  1  0
  4  5  2  0
  5  6  1  0
  6  7  2  0
  7  8  1  0
  8  9  2  0
  9 10  1  0
 10 11  2  0
 11 12  1  0
 12 13  2  0
 13 14  1  0
  1 15  1  0
 15 16  2  0
 16 17  1  0
 17 18  2  0
 17 19  1  0
 19 20  2  0
 20 21  1  0
 21 22  2  0
 20 23  1  0
 23 24  1  0
 24 25  1  0
 25 26  1  0
 26 27  1  0
 13  4  1  0
 22 15  1  0
 27 23  1  0
 12  7  1  0
M  END
>  <AAScore>  (1) 
345.63005045782467

>  <RootName>  (1) 
./4ZLY/04_DeltaGEst/trajectory_02/rank_00/lead_0243

$$$$
