confid_4
     RDKit          3D

 27 30  0  0  0  0  0  0  0  0999 V2000
   25.3300   26.2600   34.7600 N   0  0  0  0  0  0  0  0  0  0  0  0
   26.1200   25.9200   33.6900 C   0  0  0  0  0  0  0  0  0  0  0  0
   25.6300   25.1100   32.9400 O   0  0  0  0  0  0  0  0  0  0  0  0
   27.5200   26.3800   33.4600 C   0  0  0  0  0  0  0  0  0  0  0  0
   28.1600   26.6300   34.6100 N   0  0  0  0  0  0  0  0  0  0  0  0
   29.4800   26.8500   34.5700 N   0  0  0  0  0  0  0  0  0  0  0  0
   30.1900   26.7800   33.4400 C   0  0  0  0  0  0  0  0  0  0  0  0
   31.5600   27.0500   33.5000 C   0  0  0  0  0  0  0  0  0  0  0  0
   32.2700   27.2400   32.3100 C   0  0  0  0  0  0  0  0  0  0  0  0
   31.6100   27.2500   31.0800 C   0  0  0  0  0  0  0  0  0  0  0  0
   30.2700   26.8700   31.0600 C   0  0  0  0  0  0  0  0  0  0  0  0
   29.5100   26.6900   32.2300 C   0  0  0  0  0  0  0  0  0  0  0  0
   28.1400   26.4100   32.2000 C   0  0  0  0  0  0  0  0  0  0  0  0
   27.4300   26.1300   31.0500 N   0  0  0  0  0  0  0  0  0  0  0  0
   23.8925   26.2816   34.7391 C   0  0  0  0  0  0  0  0  0  0  0  0
   23.2418   26.0561   35.8433 N   0  0  0  0  0  0  0  0  0  0  0  0
   21.8092   26.1300   35.9202 C   0  0  0  0  0  0  0  0  0  0  0  0
   21.0583   26.2012   34.8029 C   0  0  0  0  0  0  0  0  0  0  0  0
   19.5982   26.6017   34.9324 C   0  0  0  0  0  0  0  0  0  0  0  0
   18.6584   25.7129   34.2252 N   0  0  0  0  0  0  0  0  0  0  0  0
   18.8009   24.2832   34.5405 C   0  0  0  0  0  0  0  0  0  0  0  0
   18.4752   26.0187   32.7945 C   0  0  0  0  0  0  0  0  0  0  0  0
   19.6968   25.7107   31.9183 C   0  0  0  0  0  0  0  0  0  0  0  0
   20.9333   26.5598   32.2621 C   0  0  0  0  0  0  0  0  0  0  0  0
   21.7600   26.0126   33.4571 C   0  0  2  0  0  0  0  0  0  0  0  0
   22.0043   24.6341   33.2853 O   0  0  0  0  0  0  0  0  0  0  0  0
   23.1231   26.7482   33.5200 C   0  0  0  0  0  0  0  0  0  0  0  0
  1  2  1  0
  2  3  2  0
  2  4  1  0
  4  5  2  0
  5  6  1  0
  6  7  2  0
  7  8  1  0
  8  9  2  0
  9 10  1  0
 10 11  2  0
 11 12  1  0
 12 13  2  0
 13 14  1  0
  1 15  1  0
 15 16  2  0
 16 17  1  0
 17 18  2  0
 18 19  1  0
 19 20  1  0
 20 21  1  0
 20 22  1  0
 22 23  1  0
 23 24  1  0
 24 25  1  0
 25 26  1  6
 25 27  1  0
 13  4  1  0
 27 15  1  0
 12  7  1  0
 25 18  1  0
M  END
>  <AAScore>  (1) 
2729.5498540487984

>  <RootName>  (1) 
./4ZLY/04_DeltaGEst/trajectory_03/rank_00/lead_0255

$$$$
