confid_3
     RDKit          3D

 26 28  0  0  0  0  0  0  0  0999 V2000
   24.2000   26.2400   35.6900 N   0  0  0  0  0  0  0  0  0  0  0  0
   24.8500   26.2800   34.4800 C   0  0  0  0  0  0  0  0  0  0  0  0
   24.3100   25.7400   33.5400 O   0  0  0  0  0  0  0  0  0  0  0  0
   26.1800   26.9700   34.4700 C   0  0  0  0  0  0  0  0  0  0  0  0
   26.6500   27.6000   35.5500 N   0  0  0  0  0  0  0  0  0  0  0  0
   27.7900   28.2700   35.6200 N   0  0  0  0  0  0  0  0  0  0  0  0
   28.5400   28.3000   34.5100 C   0  0  0  0  0  0  0  0  0  0  0  0
   29.7700   28.9400   34.5600 C   0  0  0  0  0  0  0  0  0  0  0  0
   30.7000   28.8900   33.5000 C   0  0  0  0  0  0  0  0  0  0  0  0
   30.3700   28.1400   32.3700 C   0  0  0  0  0  0  0  0  0  0  0  0
   29.1200   27.5200   32.2800 C   0  0  0  0  0  0  0  0  0  0  0  0
   28.2100   27.6100   33.3300 C   0  0  0  0  0  0  0  0  0  0  0  0
   26.9700   26.9700   33.3100 C   0  0  0  0  0  0  0  0  0  0  0  0
   26.5300   26.2400   32.2200 N   0  0  0  0  0  0  0  0  0  0  0  0
   30.1412   29.6603   35.7462 N   0  0  0  0  0  0  0  0  0  0  0  0
   30.2392   31.1226   35.6967 C   0  0  0  0  0  0  0  0  0  0  0  0
   30.4031   31.7433   37.1090 C   0  0  2  0  0  0  0  0  0  0  0  0
   29.4925   30.9614   38.1045 C   0  0  2  0  0  0  0  0  0  0  0  0
   29.4226   31.6671   39.7685 S   0  0  0  0  0  6  0  0  0  0  0  0
   29.0968   30.5858   40.7615 O   0  0  0  0  0  0  0  0  0  0  0  0
   30.7478   32.2744   40.1357 O   0  0  0  0  0  0  0  0  0  0  0  0
   28.1383   32.8991   39.8858 C   0  0  0  0  0  0  0  0  0  0  0  0
   29.9260   29.4744   38.2005 C   0  0  0  0  0  0  0  0  0  0  0  0
   30.5975   28.9318   36.9297 C   0  0  0  0  0  0  0  0  0  0  0  0
   30.0982   33.2626   37.0693 C   0  0  0  0  0  0  0  0  0  0  0  0
   30.9546   34.0250   36.0555 C   0  0  0  0  0  0  0  0  0  0  0  0
  1  2  1  0
  2  3  2  0
  2  4  1  0
  4  5  2  0
  5  6  1  0
  6  7  2  0
  7  8  1  0
  8  9  2  0
  9 10  1  0
 10 11  2  0
 11 12  1  0
 12 13  2  0
 13 14  1  0
  8 15  1  0
 15 16  1  0
 16 17  1  0
 17 18  1  0
 18 19  1  1
 19 20  2  0
 19 21  2  0
 19 22  1  0
 18 23  1  0
 23 24  1  0
 17 25  1  6
 25 26  1  0
 13  4  1  0
 24 15  1  0
 12  7  1  0
M  END
>  <AAScore>  (1) 
-8.533495454566426

>  <RootName>  (1) 
./4ZLY/04_DeltaGEst/trajectory_04/rank_01/lead_0262

$$$$
