confid_10
     RDKit          3D

 29 31  0  0  0  0  0  0  0  0999 V2000
   24.5700   26.8800   35.5900 N   0  0  0  0  0  0  0  0  0  0  0  0
   25.5000   26.4000   34.6900 C   0  0  0  0  0  0  0  0  0  0  0  0
   25.1700   25.5200   33.9100 O   0  0  0  0  0  0  0  0  0  0  0  0
   26.8400   27.0200   34.7400 C   0  0  0  0  0  0  0  0  0  0  0  0
   27.3800   27.2800   35.9400 N   0  0  0  0  0  0  0  0  0  0  0  0
   28.6200   27.7400   36.0300 N   0  0  0  0  0  0  0  0  0  0  0  0
   29.3800   28.0000   34.9600 C   0  0  0  0  0  0  0  0  0  0  0  0
   30.6700   28.5000   35.1300 C   0  0  0  0  0  0  0  0  0  0  0  0
   31.5400   28.6100   34.0300 C   0  0  0  0  0  0  0  0  0  0  0  0
   31.0900   28.2200   32.7700 C   0  0  0  0  0  0  0  0  0  0  0  0
   29.8000   27.7000   32.6000 C   0  0  0  0  0  0  0  0  0  0  0  0
   28.9600   27.5500   33.7100 C   0  0  0  0  0  0  0  0  0  0  0  0
   27.6600   27.0300   33.5900 C   0  0  0  0  0  0  0  0  0  0  0  0
   27.1600   26.7400   32.3400 N   0  0  0  0  0  0  0  0  0  0  0  0
   33.1562   29.2757   34.2449 S   0  0  0  0  0  6  0  0  0  0  0  0
   34.0232   28.8874   33.0798 O   0  0  0  0  0  0  0  0  0  0  0  0
   33.7562   28.6958   35.4952 O   0  0  0  0  0  0  0  0  0  0  0  0
   33.0741   31.0681   34.4029 C   0  0  1  0  0  0  0  0  0  0  0  0
   34.4849   31.6969   34.5359 C   0  0  0  0  0  0  0  0  0  0  0  0
   34.7927   32.6623   33.4511 N   0  0  0  0  0  0  0  0  0  0  0  0
   34.5761   32.0203   32.1206 C   0  0  2  0  0  0  0  0  0  0  0  0
   35.1056   32.8796   30.9265 C   0  0  0  0  0  0  0  0  0  0  0  0
   35.1014   32.1791   29.5415 C   0  0  0  0  0  0  0  0  0  0  0  0
   33.7585   32.2676   28.8107 C   0  0  0  0  0  0  0  0  0  0  0  0
   36.0488   32.8001   28.7432 F   0  0  0  0  0  0  0  0  0  0  0  0
   35.4640   30.8486   29.6693 F   0  0  0  0  0  0  0  0  0  0  0  0
   33.0619   31.7203   31.9394 C   0  0  0  0  0  0  0  0  0  0  0  0
   32.2788   31.7072   33.2582 C   0  0  0  0  0  0  0  0  0  0  0  0
   36.1680   33.1630   33.6476 C   0  0  0  0  0  0  0  0  0  0  0  0
  1  2  1  0
  2  3  2  0
  2  4  1  0
  4  5  2  0
  5  6  1  0
  6  7  2  0
  7  8  1  0
  8  9  2  0
  9 10  1  0
 10 11  2  0
 11 12  1  0
 12 13  2  0
 13 14  1  0
  9 15  1  0
 15 16  2  0
 15 17  2  0
 18 15  1  6
 18 19  1  0
 19 20  1  0
 20 21  1  0
 21 22  1  6
 22 23  1  0
 23 24  1  0
 23 25  1  0
 23 26  1  0
 21 27  1  0
 27 28  1  0
 20 29  1  0
 13  4  1  0
 28 18  1  0
 12  7  1  0
M  END
>  <AAScore>  (1) 
-5.716016210729371

>  <RootName>  (1) 
./4ZLY/04_DeltaGEst/trajectory_05/rank_01/lead_0135

$$$$
