confid_4
     RDKit          3D

 28 31  0  0  0  0  0  0  0  0999 V2000
   25.3300   26.2600   34.7600 N   0  0  0  0  0  0  0  0  0  0  0  0
   26.1200   25.9200   33.6900 C   0  0  0  0  0  0  0  0  0  0  0  0
   25.6300   25.1100   32.9400 O   0  0  0  0  0  0  0  0  0  0  0  0
   27.5200   26.3800   33.4600 C   0  0  0  0  0  0  0  0  0  0  0  0
   28.1600   26.6300   34.6100 N   0  0  0  0  0  0  0  0  0  0  0  0
   29.4800   26.8500   34.5700 N   0  0  0  0  0  0  0  0  0  0  0  0
   30.1900   26.7800   33.4400 C   0  0  0  0  0  0  0  0  0  0  0  0
   31.5600   27.0500   33.5000 C   0  0  0  0  0  0  0  0  0  0  0  0
   32.2700   27.2400   32.3100 C   0  0  0  0  0  0  0  0  0  0  0  0
   31.6100   27.2500   31.0800 C   0  0  0  0  0  0  0  0  0  0  0  0
   30.2700   26.8700   31.0600 C   0  0  0  0  0  0  0  0  0  0  0  0
   29.5100   26.6900   32.2300 C   0  0  0  0  0  0  0  0  0  0  0  0
   28.1400   26.4100   32.2000 C   0  0  0  0  0  0  0  0  0  0  0  0
   27.4300   26.1300   31.0500 N   0  0  0  0  0  0  0  0  0  0  0  0
   23.8912   26.2120   34.7784 C   0  0  0  0  0  0  0  0  0  0  0  0
   23.2568   25.9991   35.9586 N   0  0  0  0  0  0  0  0  0  0  0  0
   21.9046   25.9670   36.0561 C   0  0  0  0  0  0  0  0  0  0  0  0
   21.0991   26.1745   34.9248 C   0  0  0  0  0  0  0  0  0  0  0  0
   19.5969   26.1141   35.0959 C   0  0  0  0  0  0  0  0  0  0  0  0
   18.9819   24.8013   34.7383 N   0  0  0  0  0  0  0  0  0  0  0  0
   18.7516   24.0002   35.9543 C   0  0  0  0  0  0  0  0  0  0  0  0
   19.7273   23.9909   33.7392 C   0  0  0  0  0  0  0  0  0  0  0  0
   19.5425   24.4779   32.2914 C   0  0  0  0  0  0  0  0  0  0  0  0
   19.6471   25.9889   32.0417 C   0  0  0  0  0  0  0  0  0  0  0  0
   20.9824   26.6115   32.3891 C   0  0  0  0  0  0  0  0  0  0  0  0
   21.5010   27.3705   31.5247 O   0  0  0  0  0  0  0  0  0  0  0  0
   21.7245   26.3978   33.6691 C   0  0  0  0  0  0  0  0  0  0  0  0
   23.1307   26.4354   33.6203 C   0  0  0  0  0  0  0  0  0  0  0  0
  1  2  1  0
  2  3  2  0
  2  4  1  0
  4  5  2  0
  5  6  1  0
  6  7  2  0
  7  8  1  0
  8  9  2  0
  9 10  1  0
 10 11  2  0
 11 12  1  0
 12 13  2  0
 13 14  1  0
  1 15  1  0
 15 16  2  0
 16 17  1  0
 17 18  2  0
 18 19  1  0
 19 20  1  0
 20 21  1  0
 20 22  1  0
 22 23  1  0
 23 24  1  0
 24 25  1  0
 25 26  2  0
 25 27  1  0
 27 28  2  0
 13  4  1  0
 28 15  1  0
 12  7  1  0
 27 18  1  0
M  END
>  <AAScore>  (1) 
7673.167694472593

>  <RootName>  (1) 
./4ZLY/04_DeltaGEst/trajectory_03/rank_00/lead_0220

$$$$
