confid_4
     RDKit          3D

 27 30  0  0  0  0  0  0  0  0999 V2000
   24.4800   26.1000   36.1300 N   0  0  0  0  0  0  0  0  0  0  0  0
   25.2500   26.2500   34.9900 C   0  0  0  0  0  0  0  0  0  0  0  0
   24.7400   25.7600   33.9900 O   0  0  0  0  0  0  0  0  0  0  0  0
   26.5900   26.8900   34.9600 C   0  0  0  0  0  0  0  0  0  0  0  0
   27.0600   27.2400   36.1600 N   0  0  0  0  0  0  0  0  0  0  0  0
   28.3000   27.7100   36.2400 N   0  0  0  0  0  0  0  0  0  0  0  0
   29.0500   27.9600   35.1500 C   0  0  0  0  0  0  0  0  0  0  0  0
   30.3400   28.4900   35.2600 C   0  0  0  0  0  0  0  0  0  0  0  0
   31.1100   28.8200   34.1400 C   0  0  0  0  0  0  0  0  0  0  0  0
   30.5200   28.6700   32.8800 C   0  0  0  0  0  0  0  0  0  0  0  0
   29.2900   28.0200   32.7700 C   0  0  0  0  0  0  0  0  0  0  0  0
   28.5200   27.7100   33.8900 C   0  0  0  0  0  0  0  0  0  0  0  0
   27.2700   27.0800   33.7600 C   0  0  0  0  0  0  0  0  0  0  0  0
   26.7500   26.8800   32.4900 N   0  0  0  0  0  0  0  0  0  0  0  0
   23.5653   25.0172   36.3760 C   0  0  0  0  0  0  0  0  0  0  0  0
   22.6511   25.1823   37.2970 N   0  0  0  0  0  0  0  0  0  0  0  0
   21.6000   24.2609   37.6338 C   0  0  0  0  0  0  0  0  0  0  0  0
   21.3515   23.2173   36.8576 C   0  0  0  0  0  0  0  0  0  0  0  0
   20.2706   22.3646   36.9215 O   0  0  0  0  0  0  0  0  0  0  0  0
   20.3794   21.4544   35.8184 C   0  0  2  0  0  0  0  0  0  0  0  0
   19.2279   21.6481   34.8555 C   0  0  0  0  0  0  0  0  0  0  0  0
   19.2665   21.0790   33.4666 C   0  0  0  0  0  0  0  0  0  0  0  0
   18.2265   22.2464   35.2197 O   0  0  0  0  0  0  0  0  0  0  0  0
   20.4215   20.0166   36.3381 C   0  0  0  0  0  0  0  0  0  0  0  0
   21.6567   21.7977   35.1671 N   0  0  0  0  0  0  0  0  0  0  0  0
   22.1585   22.8287   35.7589 C   0  0  0  0  0  0  0  0  0  0  0  0
   23.8264   23.4125   35.5439 S   0  0  0  0  0  0  0  0  0  0  0  0
  1  2  1  0
  2  3  2  0
  2  4  1  0
  4  5  2  0
  5  6  1  0
  6  7  2  0
  7  8  1  0
  8  9  2  0
  9 10  1  0
 10 11  2  0
 11 12  1  0
 12 13  2  0
 13 14  1  0
  1 15  1  0
 15 16  2  0
 16 17  1  0
 17 18  2  0
 18 19  1  0
 19 20  1  0
 20 21  1  0
 21 22  1  0
 21 23  2  0
 20 24  1  1
 20 25  1  0
 25 26  2  0
 26 27  1  0
 13  4  1  0
 27 15  1  0
 12  7  1  0
 26 18  1  0
M  END
>  <AAScore>  (1) 
165.17356457229394

>  <RootName>  (1) 
./4ZLY/04_DeltaGEst/trajectory_00/rank_01/lead_0322

$$$$
