confid_12
     RDKit          3D

 28 31  0  0  0  0  0  0  0  0999 V2000
   24.4800   26.1000   36.1300 N   0  0  0  0  0  0  0  0  0  0  0  0
   25.2500   26.2500   34.9900 C   0  0  0  0  0  0  0  0  0  0  0  0
   24.7400   25.7600   33.9900 O   0  0  0  0  0  0  0  0  0  0  0  0
   26.5900   26.8900   34.9600 C   0  0  0  0  0  0  0  0  0  0  0  0
   27.0600   27.2400   36.1600 N   0  0  0  0  0  0  0  0  0  0  0  0
   28.3000   27.7100   36.2400 N   0  0  0  0  0  0  0  0  0  0  0  0
   29.0500   27.9600   35.1500 C   0  0  0  0  0  0  0  0  0  0  0  0
   30.3400   28.4900   35.2600 C   0  0  0  0  0  0  0  0  0  0  0  0
   31.1100   28.8200   34.1400 C   0  0  0  0  0  0  0  0  0  0  0  0
   30.5200   28.6700   32.8800 C   0  0  0  0  0  0  0  0  0  0  0  0
   29.2900   28.0200   32.7700 C   0  0  0  0  0  0  0  0  0  0  0  0
   28.5200   27.7100   33.8900 C   0  0  0  0  0  0  0  0  0  0  0  0
   27.2700   27.0800   33.7600 C   0  0  0  0  0  0  0  0  0  0  0  0
   26.7500   26.8800   32.4900 N   0  0  0  0  0  0  0  0  0  0  0  0
   23.4675   25.0976   36.3341 C   0  0  0  0  0  0  0  0  0  0  0  0
   22.6608   25.1767   37.4321 N   0  0  0  0  0  0  0  0  0  0  0  0
   21.7217   24.2205   37.6369 C   0  0  0  0  0  0  0  0  0  0  0  0
   20.7611   24.1495   38.7518 C   0  0  0  0  0  0  0  0  0  0  0  0
   20.0117   22.8855   38.5419 N   0  0  0  0  0  0  0  0  0  0  0  0
   18.5587   23.1095   38.5561 C   0  0  0  0  0  0  0  0  0  0  0  0
   20.4629   22.3059   37.2507 C   0  0  0  0  0  0  0  0  0  0  0  0
   21.5613   23.1819   36.7826 C   0  0  0  0  0  0  0  0  0  0  0  0
   22.3829   23.0812   35.6557 C   0  0  0  0  0  0  0  0  0  0  0  0
   23.3255   24.0495   35.4640 N   0  0  0  0  0  0  0  0  0  0  0  0
   22.2513   21.9493   34.6775 C   0  0  0  0  0  0  0  0  0  0  0  0
   23.1724   22.0862   33.6537 F   0  0  0  0  0  0  0  0  0  0  0  0
   20.9798   21.9459   34.1342 F   0  0  0  0  0  0  0  0  0  0  0  0
   22.4772   20.7466   35.3211 F   0  0  0  0  0  0  0  0  0  0  0  0
  1  2  1  0
  2  3  2  0
  2  4  1  0
  4  5  2  0
  5  6  1  0
  6  7  2  0
  7  8  1  0
  8  9  2  0
  9 10  1  0
 10 11  2  0
 11 12  1  0
 12 13  2  0
 13 14  1  0
  1 15  1  0
 15 16  2  0
 16 17  1  0
 17 18  1  0
 18 19  1  0
 19 20  1  0
 19 21  1  0
 21 22  1  0
 22 23  1  0
 23 24  2  0
 23 25  1  0
 25 26  1  0
 25 27  1  0
 25 28  1  0
 13  4  1  0
 24 15  1  0
 12  7  1  0
 22 17  2  0
M  END
>  <AAScore>  (1) 
1494.8893329303298

>  <RootName>  (1) 
./4ZLY/04_DeltaGEst/trajectory_00/rank_01/lead_0270

$$$$
