confid_15
     RDKit          3D

 29 32  0  0  0  0  0  0  0  0999 V2000
   24.5700   26.8800   35.5900 N   0  0  0  0  0  0  0  0  0  0  0  0
   25.5000   26.4000   34.6900 C   0  0  0  0  0  0  0  0  0  0  0  0
   25.1700   25.5200   33.9100 O   0  0  0  0  0  0  0  0  0  0  0  0
   26.8400   27.0200   34.7400 C   0  0  0  0  0  0  0  0  0  0  0  0
   27.3800   27.2800   35.9400 N   0  0  0  0  0  0  0  0  0  0  0  0
   28.6200   27.7400   36.0300 N   0  0  0  0  0  0  0  0  0  0  0  0
   29.3800   28.0000   34.9600 C   0  0  0  0  0  0  0  0  0  0  0  0
   30.6700   28.5000   35.1300 C   0  0  0  0  0  0  0  0  0  0  0  0
   31.5400   28.6100   34.0300 C   0  0  0  0  0  0  0  0  0  0  0  0
   31.0900   28.2200   32.7700 C   0  0  0  0  0  0  0  0  0  0  0  0
   29.8000   27.7000   32.6000 C   0  0  0  0  0  0  0  0  0  0  0  0
   28.9600   27.5500   33.7100 C   0  0  0  0  0  0  0  0  0  0  0  0
   27.6600   27.0300   33.5900 C   0  0  0  0  0  0  0  0  0  0  0  0
   27.1600   26.7400   32.3400 N   0  0  0  0  0  0  0  0  0  0  0  0
   23.1459   26.6588   35.5256 C   0  0  0  0  0  0  0  0  0  0  0  0
   22.4997   26.6878   36.6601 N   0  0  0  0  0  0  0  0  0  0  0  0
   21.1245   26.5485   37.0607 C   0  0  0  0  0  0  0  0  0  0  0  0
   20.0839   26.2380   36.2760 C   0  0  0  0  0  0  0  0  0  0  0  0
   18.6870   26.2589   36.7885 C   0  0  0  0  0  0  0  0  0  0  0  0
   17.8111   25.8872   35.6622 N   0  0  0  0  0  0  0  0  0  0  0  0
   17.2926   24.4970   35.7616 C   0  0  0  0  0  0  0  0  0  0  0  0
   15.8085   24.4241   35.3455 C   0  0  0  0  0  0  0  0  0  0  0  0
   14.9336   25.3150   36.2378 C   0  0  0  0  0  0  0  0  0  0  0  0
   15.6000   24.7683   33.8659 C   0  0  0  0  0  0  0  0  0  0  0  0
   18.6308   26.0882   34.4517 C   0  0  0  0  0  0  0  0  0  0  0  0
   20.1063   25.8944   34.8412 C   0  0  2  0  0  0  0  0  0  0  0  0
   20.4682   24.5408   34.7033 O   0  0  0  0  0  0  0  0  0  0  0  0
   21.0347   26.8301   34.0490 C   0  0  0  0  0  0  0  0  0  0  0  0
   22.5006   26.4254   34.1749 C   0  0  0  0  0  0  0  0  0  0  0  0
  1  2  1  0
  2  3  2  0
  2  4  1  0
  4  5  2  0
  5  6  1  0
  6  7  2  0
  7  8  1  0
  8  9  2  0
  9 10  1  0
 10 11  2  0
 11 12  1  0
 12 13  2  0
 13 14  1  0
  1 15  1  0
 15 16  2  0
 16 17  1  0
 17 18  2  0
 18 19  1  0
 19 20  1  0
 20 21  1  0
 21 22  1  0
 22 23  1  0
 22 24  1  0
 20 25  1  0
 25 26  1  0
 26 27  1  1
 26 28  1  0
 28 29  1  0
 13  4  1  0
 29 15  1  0
 12  7  1  0
 26 18  1  0
M  END
>  <AAScore>  (1) 
1146.1421103578948

>  <RootName>  (1) 
./4ZLY/04_DeltaGEst/trajectory_05/rank_00/lead_0277

$$$$
