confid_11
     RDKit          3D

 27 30  0  0  0  0  0  0  0  0999 V2000
   25.3300   26.2600   34.7600 N   0  0  0  0  0  0  0  0  0  0  0  0
   26.1200   25.9200   33.6900 C   0  0  0  0  0  0  0  0  0  0  0  0
   25.6300   25.1100   32.9400 O   0  0  0  0  0  0  0  0  0  0  0  0
   27.5200   26.3800   33.4600 C   0  0  0  0  0  0  0  0  0  0  0  0
   28.1600   26.6300   34.6100 N   0  0  0  0  0  0  0  0  0  0  0  0
   29.4800   26.8500   34.5700 N   0  0  0  0  0  0  0  0  0  0  0  0
   30.1900   26.7800   33.4400 C   0  0  0  0  0  0  0  0  0  0  0  0
   31.5600   27.0500   33.5000 C   0  0  0  0  0  0  0  0  0  0  0  0
   32.2700   27.2400   32.3100 C   0  0  0  0  0  0  0  0  0  0  0  0
   31.6100   27.2500   31.0800 C   0  0  0  0  0  0  0  0  0  0  0  0
   30.2700   26.8700   31.0600 C   0  0  0  0  0  0  0  0  0  0  0  0
   29.5100   26.6900   32.2300 C   0  0  0  0  0  0  0  0  0  0  0  0
   28.1400   26.4100   32.2000 C   0  0  0  0  0  0  0  0  0  0  0  0
   27.4300   26.1300   31.0500 N   0  0  0  0  0  0  0  0  0  0  0  0
   23.8876   26.2831   34.7677 C   0  0  0  0  0  0  0  0  0  0  0  0
   23.3079   26.1466   35.9294 N   0  0  0  0  0  0  0  0  0  0  0  0
   21.9489   26.1353   36.4015 C   0  0  0  0  0  0  0  0  0  0  0  0
   20.8385   26.2151   35.6627 C   0  0  0  0  0  0  0  0  0  0  0  0
   19.6002   26.3369   36.2656 O   0  0  0  0  0  0  0  0  0  0  0  0
   18.5679   26.5258   35.3193 C   0  0  0  0  0  0  0  0  0  0  0  0
   19.2938   26.8166   34.0030 C   0  0  0  0  0  0  0  0  0  0  0  0
   20.7123   26.2196   34.1769 C   0  0  2  0  0  0  0  0  0  0  0  0
   20.7196   24.8087   33.6114 C   0  0  0  0  0  0  0  0  0  0  0  0
   20.9086   23.8084   34.3572 O   0  0  0  0  0  0  0  0  0  0  0  0
   20.5219   24.6158   32.2466 O   0  0  0  0  0  0  0  0  0  0  0  0
   21.7772   27.1214   33.5278 C   0  0  0  0  0  0  0  0  0  0  0  0
   23.1557   26.4646   33.4534 C   0  0  0  0  0  0  0  0  0  0  0  0
  1  2  1  0
  2  3  2  0
  2  4  1  0
  4  5  2  0
  5  6  1  0
  6  7  2  0
  7  8  1  0
  8  9  2  0
  9 10  1  0
 10 11  2  0
 11 12  1  0
 12 13  2  0
 13 14  1  0
  1 15  1  0
 15 16  2  0
 16 17  1  0
 17 18  2  0
 18 19  1  0
 19 20  1  0
 20 21  1  0
 21 22  1  0
 22 23  1  6
 23 24  2  0
 23 25  1  0
 22 26  1  0
 26 27  1  0
 13  4  1  0
 27 15  1  0
 12  7  1  0
 22 18  1  0
M  END
>  <AAScore>  (1) 
2979.217574287677

>  <RootName>  (1) 
./4ZLY/04_DeltaGEst/trajectory_03/rank_00/lead_0240

$$$$
