confid_4
     RDKit          3D

 28 31  0  0  0  0  0  0  0  0999 V2000
   25.3300   26.2600   34.7600 N   0  0  0  0  0  0  0  0  0  0  0  0
   26.1200   25.9200   33.6900 C   0  0  0  0  0  0  0  0  0  0  0  0
   25.6300   25.1100   32.9400 O   0  0  0  0  0  0  0  0  0  0  0  0
   27.5200   26.3800   33.4600 C   0  0  0  0  0  0  0  0  0  0  0  0
   28.1600   26.6300   34.6100 N   0  0  0  0  0  0  0  0  0  0  0  0
   29.4800   26.8500   34.5700 N   0  0  0  0  0  0  0  0  0  0  0  0
   30.1900   26.7800   33.4400 C   0  0  0  0  0  0  0  0  0  0  0  0
   31.5600   27.0500   33.5000 C   0  0  0  0  0  0  0  0  0  0  0  0
   32.2700   27.2400   32.3100 C   0  0  0  0  0  0  0  0  0  0  0  0
   31.6100   27.2500   31.0800 C   0  0  0  0  0  0  0  0  0  0  0  0
   30.2700   26.8700   31.0600 C   0  0  0  0  0  0  0  0  0  0  0  0
   29.5100   26.6900   32.2300 C   0  0  0  0  0  0  0  0  0  0  0  0
   28.1400   26.4100   32.2000 C   0  0  0  0  0  0  0  0  0  0  0  0
   27.4300   26.1300   31.0500 N   0  0  0  0  0  0  0  0  0  0  0  0
   27.5832   24.8143   30.4146 C   0  0  0  0  0  0  0  0  0  0  0  0
   26.9591   24.8129   29.0216 C   0  0  0  0  0  0  0  0  0  0  0  0
   27.2992   26.0833   28.3546 N   0  0  0  0  0  0  0  0  0  0  0  0
   27.0218   26.0142   26.9052 C   0  0  0  0  0  0  0  0  0  0  0  0
   28.1019   25.2365   26.2022 C   0  0  0  0  0  0  0  0  0  0  0  0
   29.3029   25.4040   26.5526 O   0  0  0  0  0  0  0  0  0  0  0  0
   27.7902   24.3017   25.1516 N   0  0  0  0  0  0  0  0  0  0  0  0
   28.6142   23.0910   25.0108 C   0  0  0  0  0  0  0  0  0  0  0  0
   28.0126   22.1084   23.9932 C   0  0  0  0  0  0  0  0  0  0  0  0
   26.4966   21.9898   24.1968 C   0  0  0  0  0  0  0  0  0  0  0  0
   25.7700   23.3519   24.0954 C   0  0  0  0  0  0  0  0  0  0  0  0
   26.7177   24.5599   24.1809 C   0  0  0  0  0  0  0  0  0  0  0  0
   26.5695   27.2141   28.9724 C   0  0  0  0  0  0  0  0  0  0  0  0
   26.4812   27.1148   30.5138 C   0  0  0  0  0  0  0  0  0  0  0  0
  1  2  1  0
  2  3  2  0
  2  4  1  0
  4  5  2  0
  5  6  1  0
  6  7  2  0
  7  8  1  0
  8  9  2  0
  9 10  1  0
 10 11  2  0
 11 12  1  0
 12 13  2  0
 13 14  1  0
 14 15  1  0
 15 16  1  0
 16 17  1  0
 17 18  1  0
 18 19  1  0
 19 20  2  0
 19 21  1  0
 21 22  1  0
 22 23  1  0
 23 24  1  0
 24 25  1  0
 25 26  1  0
 17 27  1  0
 27 28  1  0
 13  4  1  0
 28 14  1  0
 12  7  1  0
 26 21  1  0
M  END
>  <AAScore>  (1) 
-2.57389014880242

>  <RootName>  (1) 
./4ZLY/04_DeltaGEst/trajectory_03/rank_01/lead_0186

$$$$
