confid_16
     RDKit          3D

 27 30  0  0  0  0  0  0  0  0999 V2000
   24.4800   26.1000   36.1300 N   0  0  0  0  0  0  0  0  0  0  0  0
   25.2500   26.2500   34.9900 C   0  0  0  0  0  0  0  0  0  0  0  0
   24.7400   25.7600   33.9900 O   0  0  0  0  0  0  0  0  0  0  0  0
   26.5900   26.8900   34.9600 C   0  0  0  0  0  0  0  0  0  0  0  0
   27.0600   27.2400   36.1600 N   0  0  0  0  0  0  0  0  0  0  0  0
   28.3000   27.7100   36.2400 N   0  0  0  0  0  0  0  0  0  0  0  0
   29.0500   27.9600   35.1500 C   0  0  0  0  0  0  0  0  0  0  0  0
   30.3400   28.4900   35.2600 C   0  0  0  0  0  0  0  0  0  0  0  0
   31.1100   28.8200   34.1400 C   0  0  0  0  0  0  0  0  0  0  0  0
   30.5200   28.6700   32.8800 C   0  0  0  0  0  0  0  0  0  0  0  0
   29.2900   28.0200   32.7700 C   0  0  0  0  0  0  0  0  0  0  0  0
   28.5200   27.7100   33.8900 C   0  0  0  0  0  0  0  0  0  0  0  0
   27.2700   27.0800   33.7600 C   0  0  0  0  0  0  0  0  0  0  0  0
   26.7500   26.8800   32.4900 N   0  0  0  0  0  0  0  0  0  0  0  0
   23.5313   25.0392   36.3576 C   0  0  0  0  0  0  0  0  0  0  0  0
   23.7263   23.7500   35.8160 C   0  0  0  0  0  0  0  0  0  0  0  0
   22.7898   22.7544   36.0909 C   0  0  0  0  0  0  0  0  0  0  0  0
   22.8108   21.3360   35.6164 C   0  0  0  0  0  0  0  0  0  0  0  0
   21.5533   20.8310   36.2513 C   0  0  0  0  0  0  0  0  0  0  0  0
   21.1077   19.6627   36.1023 O   0  0  0  0  0  0  0  0  0  0  0  0
   20.8927   21.8205   37.0335 N   0  0  0  0  0  0  0  0  0  0  0  0
   21.6865   23.0010   36.8880 C   0  0  0  0  0  0  0  0  0  0  0  0
   21.4852   24.2630   37.4583 C   0  0  0  0  0  0  0  0  0  0  0  0
   22.4171   25.2780   37.1912 C   0  0  0  0  0  0  0  0  0  0  0  0
   19.5728   21.6715   37.5177 N   0  0  0  0  0  0  0  0  0  0  0  0
   19.5329   21.8476   38.9735 C   0  0  0  0  0  0  0  0  0  0  0  0
   18.6475   22.5662   36.8116 C   0  0  0  0  0  0  0  0  0  0  0  0
  1  2  1  0
  2  3  2  0
  2  4  1  0
  4  5  2  0
  5  6  1  0
  6  7  2  0
  7  8  1  0
  8  9  2  0
  9 10  1  0
 10 11  2  0
 11 12  1  0
 12 13  2  0
 13 14  1  0
  1 15  1  0
 15 16  2  0
 16 17  1  0
 17 18  1  0
 18 19  1  0
 19 20  2  0
 19 21  1  0
 21 22  1  0
 22 23  1  0
 23 24  2  0
 21 25  1  0
 25 26  1  0
 25 27  1  0
 13  4  1  0
 24 15  1  0
 12  7  1  0
 22 17  2  0
M  END
>  <AAScore>  (1) 
910.3626509510578

>  <RootName>  (1) 
./4ZLY/04_DeltaGEst/trajectory_00/rank_00/lead_0164

$$$$
