confid_3
     RDKit          3D

 26 29  0  0  0  0  0  0  0  0999 V2000
   24.4800   26.1000   36.1300 N   0  0  0  0  0  0  0  0  0  0  0  0
   25.2500   26.2500   34.9900 C   0  0  0  0  0  0  0  0  0  0  0  0
   24.7400   25.7600   33.9900 O   0  0  0  0  0  0  0  0  0  0  0  0
   26.5900   26.8900   34.9600 C   0  0  0  0  0  0  0  0  0  0  0  0
   27.0600   27.2400   36.1600 N   0  0  0  0  0  0  0  0  0  0  0  0
   28.3000   27.7100   36.2400 N   0  0  0  0  0  0  0  0  0  0  0  0
   29.0500   27.9600   35.1500 C   0  0  0  0  0  0  0  0  0  0  0  0
   30.3400   28.4900   35.2600 C   0  0  0  0  0  0  0  0  0  0  0  0
   31.1100   28.8200   34.1400 C   0  0  0  0  0  0  0  0  0  0  0  0
   30.5200   28.6700   32.8800 C   0  0  0  0  0  0  0  0  0  0  0  0
   29.2900   28.0200   32.7700 C   0  0  0  0  0  0  0  0  0  0  0  0
   28.5200   27.7100   33.8900 C   0  0  0  0  0  0  0  0  0  0  0  0
   27.2700   27.0800   33.7600 C   0  0  0  0  0  0  0  0  0  0  0  0
   26.7500   26.8800   32.4900 N   0  0  0  0  0  0  0  0  0  0  0  0
   23.4711   25.0848   36.3169 C   0  0  0  0  0  0  0  0  0  0  0  0
   23.7156   23.7642   35.8590 C   0  0  0  0  0  0  0  0  0  0  0  0
   22.8385   22.6601   35.9590 C   0  0  0  0  0  0  0  0  0  0  0  0
   23.2845   21.4592   35.3969 O   0  0  0  0  0  0  0  0  0  0  0  0
   22.5467   20.7245   34.4217 C   0  0  0  0  0  0  0  0  0  0  0  0
   21.1501   20.3591   34.9212 C   0  0  0  0  0  0  0  0  0  0  0  0
   21.1398   20.3323   36.3340 O   0  0  0  0  0  0  0  0  0  0  0  0
   20.6650   21.5591   36.8526 C   0  0  0  0  0  0  0  0  0  0  0  0
   21.5878   22.7337   36.6101 C   0  0  0  0  0  0  0  0  0  0  0  0
   21.1338   24.2311   37.2496 S   0  0  0  0  0  0  0  0  0  0  0  0
   22.2944   25.4255   36.9957 C   0  0  0  0  0  0  0  0  0  0  0  0
   22.0906   26.5975   37.4097 O   0  0  0  0  0  0  0  0  0  0  0  0
  1  2  1  0
  2  3  2  0
  2  4  1  0
  4  5  2  0
  5  6  1  0
  6  7  2  0
  7  8  1  0
  8  9  2  0
  9 10  1  0
 10 11  2  0
 11 12  1  0
 12 13  2  0
 13 14  1  0
  1 15  1  0
 15 16  2  0
 16 17  1  0
 17 18  1  0
 18 19  1  0
 19 20  1  0
 20 21  1  0
 21 22  1  0
 22 23  1  0
 23 24  1  0
 24 25  1  0
 25 26  2  0
 13  4  1  0
 25 15  1  0
 12  7  1  0
 23 17  2  0
M  END
>  <AAScore>  (1) 
519.7954840178293

>  <RootName>  (1) 
./4ZLY/04_DeltaGEst/trajectory_00/rank_00/lead_0325

$$$$
