confid_5
     RDKit          3D

 27 30  0  0  0  0  0  0  0  0999 V2000
   24.2000   26.2400   35.6900 N   0  0  0  0  0  0  0  0  0  0  0  0
   24.8500   26.2800   34.4800 C   0  0  0  0  0  0  0  0  0  0  0  0
   24.3100   25.7400   33.5400 O   0  0  0  0  0  0  0  0  0  0  0  0
   26.1800   26.9700   34.4700 C   0  0  0  0  0  0  0  0  0  0  0  0
   26.6500   27.6000   35.5500 N   0  0  0  0  0  0  0  0  0  0  0  0
   27.7900   28.2700   35.6200 N   0  0  0  0  0  0  0  0  0  0  0  0
   28.5400   28.3000   34.5100 C   0  0  0  0  0  0  0  0  0  0  0  0
   29.7700   28.9400   34.5600 C   0  0  0  0  0  0  0  0  0  0  0  0
   30.7000   28.8900   33.5000 C   0  0  0  0  0  0  0  0  0  0  0  0
   30.3700   28.1400   32.3700 C   0  0  0  0  0  0  0  0  0  0  0  0
   29.1200   27.5200   32.2800 C   0  0  0  0  0  0  0  0  0  0  0  0
   28.2100   27.6100   33.3300 C   0  0  0  0  0  0  0  0  0  0  0  0
   26.9700   26.9700   33.3100 C   0  0  0  0  0  0  0  0  0  0  0  0
   26.5300   26.2400   32.2200 N   0  0  0  0  0  0  0  0  0  0  0  0
   22.7725   26.1493   35.8477 C   0  0  0  0  0  0  0  0  0  0  0  0
   22.2696   25.5756   36.9700 N   0  0  0  0  0  0  0  0  0  0  0  0
   20.9355   25.4844   37.2010 C   0  0  0  0  0  0  0  0  0  0  0  0
   20.0069   26.0026   36.2801 C   0  0  0  0  0  0  0  0  0  0  0  0
   20.5064   26.5925   35.0879 C   0  0  0  0  0  0  0  0  0  0  0  0
   21.8895   26.6871   34.9008 C   0  0  0  0  0  0  0  0  0  0  0  0
   19.7020   27.1453   34.0798 O   0  0  0  0  0  0  0  0  0  0  0  0
   18.4804   26.6047   33.5781 C   0  0  2  0  0  0  0  0  0  0  0  0
   18.5413   26.6493   32.0508 C   0  0  0  0  0  0  0  0  0  0  0  0
   17.2913   27.4420   34.0940 C   0  0  0  0  0  0  0  0  0  0  0  0
   16.8026   26.9758   35.3346 O   0  0  0  0  0  0  0  0  0  0  0  0
   17.7393   27.1820   36.3731 C   0  0  0  0  0  0  0  0  0  0  0  0
   18.5352   25.8895   36.6201 C   0  0  0  0  0  0  0  0  0  0  0  0
  1  2  1  0
  2  3  2  0
  2  4  1  0
  4  5  2  0
  5  6  1  0
  6  7  2  0
  7  8  1  0
  8  9  2  0
  9 10  1  0
 10 11  2  0
 11 12  1  0
 12 13  2  0
 13 14  1  0
  1 15  1  0
 15 16  2  0
 16 17  1  0
 17 18  2  0
 18 19  1  0
 19 20  2  0
 19 21  1  0
 21 22  1  0
 22 23  1  6
 22 24  1  0
 24 25  1  0
 25 26  1  0
 26 27  1  0
 13  4  1  0
 20 15  1  0
 12  7  1  0
 27 18  1  0
M  END
>  <AAScore>  (1) 
291.98642111716174

>  <RootName>  (1) 
./4ZLY/04_DeltaGEst/trajectory_04/rank_00/lead_0195

$$$$
