confid_0
     RDKit          3D

 28 32  0  0  0  0  0  0  0  0999 V2000
   24.6900   26.1200   35.5300 N   0  0  0  0  0  0  0  0  0  0  0  0
   25.6600   25.6700   34.6600 C   0  0  0  0  0  0  0  0  0  0  0  0
   25.2400   25.0100   33.7200 O   0  0  0  0  0  0  0  0  0  0  0  0
   27.0300   26.2200   34.8800 C   0  0  0  0  0  0  0  0  0  0  0  0
   27.3500   26.7300   36.0700 N   0  0  0  0  0  0  0  0  0  0  0  0
   28.5700   27.1800   36.3300 N   0  0  0  0  0  0  0  0  0  0  0  0
   29.5300   27.1100   35.3900 C   0  0  0  0  0  0  0  0  0  0  0  0
   30.8300   27.5700   35.6500 C   0  0  0  0  0  0  0  0  0  0  0  0
   31.8500   27.5400   34.6900 C   0  0  0  0  0  0  0  0  0  0  0  0
   31.5100   27.1200   33.4000 C   0  0  0  0  0  0  0  0  0  0  0  0
   30.2200   26.6300   33.1100 C   0  0  0  0  0  0  0  0  0  0  0  0
   29.2400   26.6600   34.1000 C   0  0  0  0  0  0  0  0  0  0  0  0
   27.9300   26.2600   33.8100 C   0  0  0  0  0  0  0  0  0  0  0  0
   27.5200   25.7100   32.6100 N   0  0  0  0  0  0  0  0  0  0  0  0
   23.3485   26.3830   35.0957 C   0  0  0  0  0  0  0  0  0  0  0  0
   23.1766   27.3072   34.1927 N   0  0  0  0  0  0  0  0  0  0  0  0
   22.0388   27.8265   33.4844 C   0  0  0  0  0  0  0  0  0  0  0  0
   21.0244   27.0659   33.0876 C   0  0  0  0  0  0  0  0  0  0  0  0
   20.1930   26.9501   31.8420 C   0  0  0  0  0  0  0  0  0  0  0  0
   19.7207   25.6724   32.1261 O   0  0  0  0  0  0  0  0  0  0  0  0
   20.3307   25.7727   33.3708 C   0  0  1  0  0  0  0  0  0  0  0  0
   21.3058   24.6436   33.6996 C   0  0  0  0  0  0  0  0  0  0  0  0
   21.5232   24.6897   35.1887 C   0  0  0  0  0  0  0  0  0  0  0  0
   22.2711   25.6416   35.7840 C   0  0  0  0  0  0  0  0  0  0  0  0
   22.1658   25.8074   37.1696 O   0  0  0  0  0  0  0  0  0  0  0  0
   21.2111   25.0629   37.9237 C   0  0  0  0  0  0  0  0  0  0  0  0
   21.1118   23.7547   37.4020 O   0  0  0  0  0  0  0  0  0  0  0  0
   20.6401   23.8246   36.0664 C   0  0  0  0  0  0  0  0  0  0  0  0
  1  2  1  0
  2  3  2  0
  2  4  1  0
  4  5  2  0
  5  6  1  0
  6  7  2  0
  7  8  1  0
  8  9  2  0
  9 10  1  0
 10 11  2  0
 11 12  1  0
 12 13  2  0
 13 14  1  0
  1 15  1  0
 15 16  2  0
 16 17  1  0
 17 18  2  0
 18 19  1  0
 19 20  1  0
 20 21  1  0
 21 22  1  6
 22 23  1  0
 23 24  2  0
 24 25  1  0
 25 26  1  0
 26 27  1  0
 27 28  1  0
 13  4  1  0
 24 15  1  0
 12  7  1  0
 21 18  1  0
 28 23  1  0
M  END
>  <AAScore>  (1) 
56046600.81338296

>  <RootName>  (1) 
./4ZLY/04_DeltaGEst/trajectory_02/rank_00/lead_0151

$$$$
