confid_7
     RDKit          3D

 31 35  0  0  0  0  0  0  0  0999 V2000
   24.5700   26.8800   35.5900 N   0  0  0  0  0  0  0  0  0  0  0  0
   25.5000   26.4000   34.6900 C   0  0  0  0  0  0  0  0  0  0  0  0
   25.1700   25.5200   33.9100 O   0  0  0  0  0  0  0  0  0  0  0  0
   26.8400   27.0200   34.7400 C   0  0  0  0  0  0  0  0  0  0  0  0
   27.3800   27.2800   35.9400 N   0  0  0  0  0  0  0  0  0  0  0  0
   28.6200   27.7400   36.0300 N   0  0  0  0  0  0  0  0  0  0  0  0
   29.3800   28.0000   34.9600 C   0  0  0  0  0  0  0  0  0  0  0  0
   30.6700   28.5000   35.1300 C   0  0  0  0  0  0  0  0  0  0  0  0
   31.5400   28.6100   34.0300 C   0  0  0  0  0  0  0  0  0  0  0  0
   31.0900   28.2200   32.7700 C   0  0  0  0  0  0  0  0  0  0  0  0
   29.8000   27.7000   32.6000 C   0  0  0  0  0  0  0  0  0  0  0  0
   28.9600   27.5500   33.7100 C   0  0  0  0  0  0  0  0  0  0  0  0
   27.6600   27.0300   33.5900 C   0  0  0  0  0  0  0  0  0  0  0  0
   27.1600   26.7400   32.3400 N   0  0  0  0  0  0  0  0  0  0  0  0
   23.3650   26.2030   35.9997 C   0  0  0  0  0  0  0  0  0  0  0  0
   22.4109   26.9415   36.5082 N   0  0  0  0  0  0  0  0  0  0  0  0
   21.1096   26.6000   37.0268 C   0  0  0  0  0  0  0  0  0  0  0  0
   20.1543   25.9368   36.3488 C   0  0  0  0  0  0  0  0  0  0  0  0
   20.3622   25.3144   34.9879 C   0  0  2  0  0  0  0  0  0  0  0  0
   19.1409   25.6678   34.1242 C   0  0  0  0  0  0  0  0  0  0  0  0
   17.8886   25.3250   34.8144 N   0  0  0  0  0  0  0  0  0  0  0  0
   16.6895   25.1242   33.9888 C   0  0  0  0  0  0  0  0  0  0  0  0
   15.5200   24.5626   34.7987 C   0  0  0  0  0  0  0  0  0  0  0  0
   15.2852   25.4213   36.0390 C   0  0  0  0  0  0  0  0  0  0  0  0
   16.4916   25.3504   36.9756 C   0  0  0  0  0  0  0  0  0  0  0  0
   17.7906   25.5491   36.2435 C   0  0  0  0  0  0  0  0  0  0  0  0
   18.8518   25.8391   36.9374 N   0  0  0  0  0  0  0  0  0  0  0  0
   20.5217   23.7684   35.0676 C   0  0  0  0  0  0  0  0  0  0  0  0
   21.5059   23.1998   36.1271 C   0  0  0  0  0  0  0  0  0  0  0  0
   22.2979   24.1762   36.7705 O   0  0  0  0  0  0  0  0  0  0  0  0
   23.2861   24.6911   35.9033 C   0  0  0  0  0  0  0  0  0  0  0  0
  1  2  1  0
  2  3  2  0
  2  4  1  0
  4  5  2  0
  5  6  1  0
  6  7  2  0
  7  8  1  0
  8  9  2  0
  9 10  1  0
 10 11  2  0
 11 12  1  0
 12 13  2  0
 13 14  1  0
  1 15  1  0
 15 16  2  0
 16 17  1  0
 17 18  2  0
 18 19  1  0
 19 20  1  6
 20 21  1  0
 21 22  1  0
 22 23  1  0
 23 24  1  0
 24 25  1  0
 25 26  1  0
 26 27  2  0
 19 28  1  0
 28 29  1  0
 29 30  1  0
 30 31  1  0
 13  4  1  0
 31 15  1  0
 12  7  1  0
 27 18  1  0
 26 21  1  0
M  END
>  <AAScore>  (1) 
6863.340634185831

>  <RootName>  (1) 
./4ZLY/04_DeltaGEst/trajectory_05/rank_00/lead_0065

$$$$
