confid_19
     RDKit          3D

 29 33  0  0  0  0  0  0  0  0999 V2000
   24.5500   26.3900   36.2500 N   0  0  0  0  0  0  0  0  0  0  0  0
   25.6000   26.1300   35.4000 C   0  0  0  0  0  0  0  0  0  0  0  0
   25.4300   25.4300   34.4200 O   0  0  0  0  0  0  0  0  0  0  0  0
   26.9800   26.6300   35.7100 C   0  0  0  0  0  0  0  0  0  0  0  0
   27.3200   26.8200   36.9800 N   0  0  0  0  0  0  0  0  0  0  0  0
   28.4700   27.4000   37.3100 N   0  0  0  0  0  0  0  0  0  0  0  0
   29.4000   27.6300   36.3700 C   0  0  0  0  0  0  0  0  0  0  0  0
   30.6600   28.0500   36.8000 C   0  0  0  0  0  0  0  0  0  0  0  0
   31.5700   28.3600   35.7800 C   0  0  0  0  0  0  0  0  0  0  0  0
   31.3700   28.1000   34.4300 C   0  0  0  0  0  0  0  0  0  0  0  0
   30.1200   27.5900   34.0500 C   0  0  0  0  0  0  0  0  0  0  0  0
   29.1500   27.3400   35.0300 C   0  0  0  0  0  0  0  0  0  0  0  0
   27.8800   26.8900   34.6600 C   0  0  0  0  0  0  0  0  0  0  0  0
   27.4800   26.6100   33.3700 N   0  0  0  0  0  0  0  0  0  0  0  0
   30.9514   28.3474   38.1735 N   0  0  0  0  0  0  0  0  0  0  0  0
   32.0402   27.6275   38.8443 C   0  0  0  0  0  0  0  0  0  0  0  0
   31.6900   27.3174   40.3109 C   0  0  0  0  0  0  0  0  0  0  0  0
   30.7633   28.3888   40.9503 C   0  0  0  0  0  0  0  0  0  0  0  0
   30.8934   28.4934   42.4713 C   0  0  0  0  0  0  0  0  0  0  0  0
   29.5154   28.0311   42.7047 N   0  0  0  0  0  0  0  0  0  0  0  0
   29.4923   26.7214   43.3828 C   0  0  0  0  0  0  0  0  0  0  0  0
   28.0795   26.2583   43.5436 C   0  0  0  0  0  0  0  0  0  0  0  0
   27.5577   25.2444   42.8939 O   0  0  0  0  0  0  0  0  0  0  0  0
   26.2987   25.1257   43.2492 C   0  0  0  0  0  0  0  0  0  0  0  0
   25.9798   26.1037   44.1703 C   0  0  0  0  0  0  0  0  0  0  0  0
   27.1315   26.8357   44.3626 C   0  0  0  0  0  0  0  0  0  0  0  0
   29.3380   27.9077   41.2485 C   0  0  0  0  0  0  0  0  0  0  0  0
   30.8099   29.7485   40.2259 C   0  0  0  0  0  0  0  0  0  0  0  0
   30.3942   29.5761   38.7584 C   0  0  0  0  0  0  0  0  0  0  0  0
  1  2  1  0
  2  3  2  0
  2  4  1  0
  4  5  2  0
  5  6  1  0
  6  7  2  0
  7  8  1  0
  8  9  2  0
  9 10  1  0
 10 11  2  0
 11 12  1  0
 12 13  2  0
 13 14  1  0
  8 15  1  0
 15 16  1  0
 16 17  1  0
 17 18  1  0
 18 19  1  0
 19 20  1  0
 20 21  1  0
 21 22  1  0
 22 23  1  0
 23 24  1  0
 24 25  2  0
 25 26  1  0
 20 27  1  0
 18 28  1  0
 28 29  1  0
 13  4  1  0
 29 15  1  0
 12  7  1  0
 27 18  1  0
 26 22  2  0
M  END
>  <AAScore>  (1) 
7.655373602714593

>  <RootName>  (1) 
./4ZLY/04_DeltaGEst/trajectory_01/rank_01/lead_0267

$$$$
