confid_1
     RDKit          3D

 26 29  0  0  0  0  0  0  0  0999 V2000
   25.3300   26.2600   34.7600 N   0  0  0  0  0  0  0  0  0  0  0  0
   26.1200   25.9200   33.6900 C   0  0  0  0  0  0  0  0  0  0  0  0
   25.6300   25.1100   32.9400 O   0  0  0  0  0  0  0  0  0  0  0  0
   27.5200   26.3800   33.4600 C   0  0  0  0  0  0  0  0  0  0  0  0
   28.1600   26.6300   34.6100 N   0  0  0  0  0  0  0  0  0  0  0  0
   29.4800   26.8500   34.5700 N   0  0  0  0  0  0  0  0  0  0  0  0
   30.1900   26.7800   33.4400 C   0  0  0  0  0  0  0  0  0  0  0  0
   31.5600   27.0500   33.5000 C   0  0  0  0  0  0  0  0  0  0  0  0
   32.2700   27.2400   32.3100 C   0  0  0  0  0  0  0  0  0  0  0  0
   31.6100   27.2500   31.0800 C   0  0  0  0  0  0  0  0  0  0  0  0
   30.2700   26.8700   31.0600 C   0  0  0  0  0  0  0  0  0  0  0  0
   29.5100   26.6900   32.2300 C   0  0  0  0  0  0  0  0  0  0  0  0
   28.1400   26.4100   32.2000 C   0  0  0  0  0  0  0  0  0  0  0  0
   27.4300   26.1300   31.0500 N   0  0  0  0  0  0  0  0  0  0  0  0
   23.9533   25.8866   34.9495 C   0  0  0  0  0  0  0  0  0  0  0  0
   23.2185   25.1910   34.0491 N   0  0  0  0  0  0  0  0  0  0  0  0
   21.9479   24.9991   34.4911 C   0  0  0  0  0  0  0  0  0  0  0  0
   20.8946   24.3145   33.6781 C   0  0  0  0  0  0  0  0  0  0  0  0
   19.8040   23.8016   34.5266 N   0  0  0  0  0  0  0  0  0  0  0  0
   18.9197   22.7644   33.9906 C   0  0  0  0  0  0  0  0  0  0  0  0
   19.5065   24.3827   35.8193 C   0  0  0  0  0  0  0  0  0  0  0  0
   18.5425   23.9409   36.5027 O   0  0  0  0  0  0  0  0  0  0  0  0
   20.3141   25.5354   36.3650 C   0  0  1  0  0  0  0  0  0  0  0  0
   21.6672   25.5518   35.7280 C   0  0  0  0  0  0  0  0  0  0  0  0
   23.0500   26.3131   36.3089 S   0  0  0  0  0  0  0  0  0  0  0  0
   19.5899   26.8567   36.1018 C   0  0  0  0  0  0  0  0  0  0  0  0
  1  2  1  0
  2  3  2  0
  2  4  1  0
  4  5  2  0
  5  6  1  0
  6  7  2  0
  7  8  1  0
  8  9  2  0
  9 10  1  0
 10 11  2  0
 11 12  1  0
 12 13  2  0
 13 14  1  0
  1 15  1  0
 15 16  2  0
 16 17  1  0
 17 18  1  0
 18 19  1  0
 19 20  1  0
 19 21  1  0
 21 22  2  0
 21 23  1  0
 23 24  1  0
 24 25  1  0
 23 26  1  6
 13  4  1  0
 25 15  1  0
 12  7  1  0
 24 17  2  0
M  END
>  <AAScore>  (1) 
4067.890516860252

>  <RootName>  (1) 
./4ZLY/04_DeltaGEst/trajectory_03/rank_00/lead_0322

$$$$
