confid_2
     RDKit          3D

 29 32  0  0  0  0  0  0  0  0999 V2000
   24.5500   26.3900   36.2500 N   0  0  0  0  0  0  0  0  0  0  0  0
   25.6000   26.1300   35.4000 C   0  0  0  0  0  0  0  0  0  0  0  0
   25.4300   25.4300   34.4200 O   0  0  0  0  0  0  0  0  0  0  0  0
   26.9800   26.6300   35.7100 C   0  0  0  0  0  0  0  0  0  0  0  0
   27.3200   26.8200   36.9800 N   0  0  0  0  0  0  0  0  0  0  0  0
   28.4700   27.4000   37.3100 N   0  0  0  0  0  0  0  0  0  0  0  0
   29.4000   27.6300   36.3700 C   0  0  0  0  0  0  0  0  0  0  0  0
   30.6600   28.0500   36.8000 C   0  0  0  0  0  0  0  0  0  0  0  0
   31.5700   28.3600   35.7800 C   0  0  0  0  0  0  0  0  0  0  0  0
   31.3700   28.1000   34.4300 C   0  0  0  0  0  0  0  0  0  0  0  0
   30.1200   27.5900   34.0500 C   0  0  0  0  0  0  0  0  0  0  0  0
   29.1500   27.3400   35.0300 C   0  0  0  0  0  0  0  0  0  0  0  0
   27.8800   26.8900   34.6600 C   0  0  0  0  0  0  0  0  0  0  0  0
   27.4800   26.6100   33.3700 N   0  0  0  0  0  0  0  0  0  0  0  0
   23.2064   25.8005   36.1359 C   0  0  0  0  0  0  0  0  0  0  0  0
   23.2535   24.2492   36.2005 C   0  0  0  0  0  0  0  0  0  0  0  0
   22.6906   23.5766   34.9422 C   0  0  0  0  0  0  0  0  0  0  0  0
   21.3634   24.1274   34.6186 N   0  0  0  0  0  0  0  0  0  0  0  0
   20.2759   23.2899   34.1629 C   0  0  0  0  0  0  0  0  0  0  0  0
   19.1366   23.7994   33.9750 O   0  0  0  0  0  0  0  0  0  0  0  0
   20.4703   21.8286   33.8320 C   0  0  0  0  0  0  0  0  0  0  0  0
   21.2953   21.4454   32.5871 C   0  0  0  0  0  0  0  0  0  0  0  0
   20.7082   22.0434   31.3064 C   0  0  0  0  0  0  0  0  0  0  0  0
   19.4202   21.5097   31.0778 O   0  0  0  0  0  0  0  0  0  0  0  0
   18.8523   22.1290   29.9461 C   0  0  0  0  0  0  0  0  0  0  0  0
   20.5499   20.8829   35.0261 C   0  0  0  0  0  0  0  0  0  0  0  0
   19.2970   20.9071   34.1655 C   0  0  0  0  0  0  0  0  0  0  0  0
   21.1559   25.5862   34.6641 C   0  0  0  0  0  0  0  0  0  0  0  0
   22.4690   26.3445   34.8960 C   0  0  0  0  0  0  0  0  0  0  0  0
  1  2  1  0
  2  3  2  0
  2  4  1  0
  4  5  2  0
  5  6  1  0
  6  7  2  0
  7  8  1  0
  8  9  2  0
  9 10  1  0
 10 11  2  0
 11 12  1  0
 12 13  2  0
 13 14  1  0
  1 15  1  0
 15 16  1  0
 16 17  1  0
 17 18  1  0
 18 19  1  0
 19 20  2  0
 19 21  1  0
 21 22  1  0
 22 23  1  0
 23 24  1  0
 24 25  1  0
 21 26  1  0
 26 27  1  0
 18 28  1  0
 28 29  1  0
 13  4  1  0
 29 15  1  0
 12  7  1  0
 27 21  1  0
M  END
>  <AAScore>  (1) 
1838.31442244924

>  <RootName>  (1) 
./4ZLY/04_DeltaGEst/trajectory_01/rank_00/lead_0295

$$$$
