confid_4
     RDKit          3D

 30 34  0  0  0  0  0  0  0  0999 V2000
   24.2000   26.2400   35.6900 N   0  0  0  0  0  0  0  0  0  0  0  0
   24.8500   26.2800   34.4800 C   0  0  0  0  0  0  0  0  0  0  0  0
   24.3100   25.7400   33.5400 O   0  0  0  0  0  0  0  0  0  0  0  0
   26.1800   26.9700   34.4700 C   0  0  0  0  0  0  0  0  0  0  0  0
   26.6500   27.6000   35.5500 N   0  0  0  0  0  0  0  0  0  0  0  0
   27.7900   28.2700   35.6200 N   0  0  0  0  0  0  0  0  0  0  0  0
   28.5400   28.3000   34.5100 C   0  0  0  0  0  0  0  0  0  0  0  0
   29.7700   28.9400   34.5600 C   0  0  0  0  0  0  0  0  0  0  0  0
   30.7000   28.8900   33.5000 C   0  0  0  0  0  0  0  0  0  0  0  0
   30.3700   28.1400   32.3700 C   0  0  0  0  0  0  0  0  0  0  0  0
   29.1200   27.5200   32.2800 C   0  0  0  0  0  0  0  0  0  0  0  0
   28.2100   27.6100   33.3300 C   0  0  0  0  0  0  0  0  0  0  0  0
   26.9700   26.9700   33.3100 C   0  0  0  0  0  0  0  0  0  0  0  0
   26.5300   26.2400   32.2200 N   0  0  0  0  0  0  0  0  0  0  0  0
   23.0422   25.4256   35.9175 C   0  0  0  0  0  0  0  0  0  0  0  0
   23.1659   24.3653   36.6693 N   0  0  0  0  0  0  0  0  0  0  0  0
   22.0763   23.5358   37.0910 C   0  0  0  0  0  0  0  0  0  0  0  0
   21.2581   22.9914   36.1992 C   0  0  0  0  0  0  0  0  0  0  0  0
   19.9140   22.3317   36.1314 C   0  0  0  0  0  0  0  0  0  0  0  0
   19.8672   22.2860   34.7395 O   0  0  0  0  0  0  0  0  0  0  0  0
   21.1499   22.8260   34.7099 C   0  0  1  0  0  0  0  0  0  0  0  0
   21.2424   24.1262   33.8880 C   0  0  0  0  0  0  0  0  0  0  0  0
   20.8376   25.3720   34.6465 C   0  0  0  0  0  0  0  0  0  0  0  0
   19.5626   25.9148   34.4255 C   0  0  0  0  0  0  0  0  0  0  0  0
   19.1515   27.0580   35.1072 C   0  0  0  0  0  0  0  0  0  0  0  0
   19.9988   27.6693   36.0294 C   0  0  0  0  0  0  0  0  0  0  0  0
   21.2759   27.1367   36.2860 C   0  0  0  0  0  0  0  0  0  0  0  0
   22.1349   27.7031   37.2433 O   0  0  0  0  0  0  0  0  0  0  0  0
   21.8362   28.8633   38.0125 C   0  0  0  0  0  0  0  0  0  0  0  0
   21.7029   25.9887   35.5888 C   0  0  0  0  0  0  0  0  0  0  0  0
  1  2  1  0
  2  3  2  0
  2  4  1  0
  4  5  2  0
  5  6  1  0
  6  7  2  0
  7  8  1  0
  8  9  2  0
  9 10  1  0
 10 11  2  0
 11 12  1  0
 12 13  2  0
 13 14  1  0
  1 15  1  0
 15 16  2  0
 16 17  1  0
 17 18  2  0
 18 19  1  0
 19 20  1  0
 20 21  1  0
 21 22  1  6
 22 23  1  0
 23 24  2  0
 24 25  1  0
 25 26  2  0
 26 27  1  0
 27 28  1  0
 28 29  1  0
 27 30  2  0
 13  4  1  0
 30 15  1  0
 12  7  1  0
 21 18  1  0
 30 23  1  0
M  END
>  <AAScore>  (1) 
2643.1084148315904

>  <RootName>  (1) 
./4ZLY/04_DeltaGEst/trajectory_04/rank_00/lead_0033

$$$$
