confid_10
     RDKit          3D

 28 32  0  0  0  0  0  0  0  0999 V2000
   24.5500   26.3900   36.2500 N   0  0  0  0  0  0  0  0  0  0  0  0
   25.6000   26.1300   35.4000 C   0  0  0  0  0  0  0  0  0  0  0  0
   25.4300   25.4300   34.4200 O   0  0  0  0  0  0  0  0  0  0  0  0
   26.9800   26.6300   35.7100 C   0  0  0  0  0  0  0  0  0  0  0  0
   27.3200   26.8200   36.9800 N   0  0  0  0  0  0  0  0  0  0  0  0
   28.4700   27.4000   37.3100 N   0  0  0  0  0  0  0  0  0  0  0  0
   29.4000   27.6300   36.3700 C   0  0  0  0  0  0  0  0  0  0  0  0
   30.6600   28.0500   36.8000 C   0  0  0  0  0  0  0  0  0  0  0  0
   31.5700   28.3600   35.7800 C   0  0  0  0  0  0  0  0  0  0  0  0
   31.3700   28.1000   34.4300 C   0  0  0  0  0  0  0  0  0  0  0  0
   30.1200   27.5900   34.0500 C   0  0  0  0  0  0  0  0  0  0  0  0
   29.1500   27.3400   35.0300 C   0  0  0  0  0  0  0  0  0  0  0  0
   27.8800   26.8900   34.6600 C   0  0  0  0  0  0  0  0  0  0  0  0
   27.4800   26.6100   33.3700 N   0  0  0  0  0  0  0  0  0  0  0  0
   23.2073   26.6138   35.7915 C   0  0  0  0  0  0  0  0  0  0  0  0
   22.2366   26.5714   36.6643 N   0  0  0  0  0  0  0  0  0  0  0  0
   20.8616   26.8108   36.3485 C   0  0  0  0  0  0  0  0  0  0  0  0
   20.2667   26.0944   35.4041 C   0  0  0  0  0  0  0  0  0  0  0  0
   19.0396   26.1084   34.5447 C   0  0  0  0  0  0  0  0  0  0  0  0
   19.4241   25.0204   33.7607 O   0  0  0  0  0  0  0  0  0  0  0  0
   20.5585   24.8884   34.5564 C   0  0  1  0  0  0  0  0  0  0  0  0
   21.8739   24.9417   33.7515 C   0  0  0  0  0  0  0  0  0  0  0  0
   22.3733   26.3422   33.4491 C   0  0  0  0  0  0  0  0  0  0  0  0
   22.9712   27.1064   34.4004 C   0  0  0  0  0  0  0  0  0  0  0  0
   23.5340   28.4700   34.0607 C   0  0  0  0  0  0  0  0  0  0  0  0
   22.8747   29.0784   32.8993 N   0  0  0  0  0  0  0  0  0  0  0  0
   22.9132   28.1555   31.7616 C   0  0  0  0  0  0  0  0  0  0  0  0
   22.1073   26.8876   32.0646 C   0  0  0  0  0  0  0  0  0  0  0  0
  1  2  1  0
  2  3  2  0
  2  4  1  0
  4  5  2  0
  5  6  1  0
  6  7  2  0
  7  8  1  0
  8  9  2  0
  9 10  1  0
 10 11  2  0
 11 12  1  0
 12 13  2  0
 13 14  1  0
  1 15  1  0
 15 16  2  0
 16 17  1  0
 17 18  2  0
 18 19  1  0
 19 20  1  0
 20 21  1  0
 21 22  1  6
 22 23  1  0
 23 24  2  0
 24 25  1  0
 25 26  1  0
 26 27  1  0
 27 28  1  0
 13  4  1  0
 24 15  1  0
 12  7  1  0
 21 18  1  0
 28 23  1  0
M  END
>  <AAScore>  (1) 
3974.2565681675255

>  <RootName>  (1) 
./4ZLY/04_DeltaGEst/trajectory_01/rank_00/lead_0260

$$$$
