confid_5
     RDKit          3D

 29 32  0  0  0  0  0  0  0  0999 V2000
   24.5500   26.3900   36.2500 N   0  0  0  0  0  0  0  0  0  0  0  0
   25.6000   26.1300   35.4000 C   0  0  0  0  0  0  0  0  0  0  0  0
   25.4300   25.4300   34.4200 O   0  0  0  0  0  0  0  0  0  0  0  0
   26.9800   26.6300   35.7100 C   0  0  0  0  0  0  0  0  0  0  0  0
   27.3200   26.8200   36.9800 N   0  0  0  0  0  0  0  0  0  0  0  0
   28.4700   27.4000   37.3100 N   0  0  0  0  0  0  0  0  0  0  0  0
   29.4000   27.6300   36.3700 C   0  0  0  0  0  0  0  0  0  0  0  0
   30.6600   28.0500   36.8000 C   0  0  0  0  0  0  0  0  0  0  0  0
   31.5700   28.3600   35.7800 C   0  0  0  0  0  0  0  0  0  0  0  0
   31.3700   28.1000   34.4300 C   0  0  0  0  0  0  0  0  0  0  0  0
   30.1200   27.5900   34.0500 C   0  0  0  0  0  0  0  0  0  0  0  0
   29.1500   27.3400   35.0300 C   0  0  0  0  0  0  0  0  0  0  0  0
   27.8800   26.8900   34.6600 C   0  0  0  0  0  0  0  0  0  0  0  0
   27.4800   26.6100   33.3700 N   0  0  0  0  0  0  0  0  0  0  0  0
   31.0093   28.2764   38.2173 C   0  0  0  0  0  0  0  0  0  0  0  0
   32.0780   27.7123   38.8808 C   0  0  0  0  0  0  0  0  0  0  0  0
   31.9970   28.1601   40.1857 C   0  0  0  0  0  0  0  0  0  0  0  0
   32.9512   27.7724   41.2743 C   0  0  0  0  0  0  0  0  0  0  0  0
   32.2243   27.0305   42.4139 C   0  0  0  0  0  0  0  0  0  0  0  0
   30.8942   27.6112   42.7416 N   0  0  0  0  0  0  0  0  0  0  0  0
   30.9809   29.0870   42.8752 C   0  0  0  0  0  0  0  0  0  0  0  0
   30.5970   29.7727   41.5496 C   0  0  0  0  0  0  0  0  0  0  0  0
   30.9213   28.9712   40.3549 N   0  0  0  0  0  0  0  0  0  0  0  0
   30.3287   29.0501   39.1375 C   0  0  0  0  0  0  0  0  0  0  0  0
   29.2232   29.8441   38.8114 O   0  0  0  0  0  0  0  0  0  0  0  0
   27.9807   29.7910   39.5020 C   0  0  0  0  0  0  0  0  0  0  0  0
   30.2242   26.9816   43.9178 C   0  0  0  0  0  0  0  0  0  0  0  0
   28.7072   27.2365   43.8390 C   0  0  0  0  0  0  0  0  0  0  0  0
   30.4396   25.4548   44.0060 C   0  0  0  0  0  0  0  0  0  0  0  0
  1  2  1  0
  2  3  2  0
  2  4  1  0
  4  5  2  0
  5  6  1  0
  6  7  2  0
  7  8  1  0
  8  9  2  0
  9 10  1  0
 10 11  2  0
 11 12  1  0
 12 13  2  0
 13 14  1  0
  8 15  1  0
 15 16  1  0
 16 17  2  0
 17 18  1  0
 18 19  1  0
 19 20  1  0
 20 21  1  0
 21 22  1  0
 22 23  1  0
 23 24  1  0
 24 25  1  0
 25 26  1  0
 20 27  1  0
 27 28  1  0
 27 29  1  0
 13  4  1  0
 24 15  2  0
 12  7  1  0
 23 17  1  0
M  END
>  <AAScore>  (1) 
73.11464906589718

>  <RootName>  (1) 
./4ZLY/04_DeltaGEst/trajectory_01/rank_01/lead_0351

$$$$
