confid_2
     RDKit          3D

 26 28  0  0  0  0  0  0  0  0999 V2000
   24.5700   26.8800   35.5900 N   0  0  0  0  0  0  0  0  0  0  0  0
   25.5000   26.4000   34.6900 C   0  0  0  0  0  0  0  0  0  0  0  0
   25.1700   25.5200   33.9100 O   0  0  0  0  0  0  0  0  0  0  0  0
   26.8400   27.0200   34.7400 C   0  0  0  0  0  0  0  0  0  0  0  0
   27.3800   27.2800   35.9400 N   0  0  0  0  0  0  0  0  0  0  0  0
   28.6200   27.7400   36.0300 N   0  0  0  0  0  0  0  0  0  0  0  0
   29.3800   28.0000   34.9600 C   0  0  0  0  0  0  0  0  0  0  0  0
   30.6700   28.5000   35.1300 C   0  0  0  0  0  0  0  0  0  0  0  0
   31.5400   28.6100   34.0300 C   0  0  0  0  0  0  0  0  0  0  0  0
   31.0900   28.2200   32.7700 C   0  0  0  0  0  0  0  0  0  0  0  0
   29.8000   27.7000   32.6000 C   0  0  0  0  0  0  0  0  0  0  0  0
   28.9600   27.5500   33.7100 C   0  0  0  0  0  0  0  0  0  0  0  0
   27.6600   27.0300   33.5900 C   0  0  0  0  0  0  0  0  0  0  0  0
   27.1600   26.7400   32.3400 N   0  0  0  0  0  0  0  0  0  0  0  0
   33.1593   29.2668   34.2367 S   0  0  0  0  0  6  0  0  0  0  0  0
   34.0843   28.6628   33.2169 O   0  0  0  0  0  0  0  0  0  0  0  0
   33.6693   28.9302   35.6103 O   0  0  0  0  0  0  0  0  0  0  0  0
   33.0995   31.0372   34.0281 C   0  0  0  0  0  0  0  0  0  0  0  0
   34.4688   31.6318   34.2015 C   0  0  0  0  0  0  0  0  0  0  0  0
   35.3272   31.7644   33.0988 C   0  0  0  0  0  0  0  0  0  0  0  0
   36.6090   32.2958   33.2642 C   0  0  0  0  0  0  0  0  0  0  0  0
   37.4277   32.4338   32.1923 F   0  0  0  0  0  0  0  0  0  0  0  0
   37.0485   32.6854   34.5324 C   0  0  0  0  0  0  0  0  0  0  0  0
   36.2125   32.5301   35.6485 C   0  0  0  0  0  0  0  0  0  0  0  0
   34.9187   32.0135   35.4761 C   0  0  0  0  0  0  0  0  0  0  0  0
   36.6724   32.9762   37.0048 C   0  0  0  0  0  0  0  0  0  0  0  0
  1  2  1  0
  2  3  2  0
  2  4  1  0
  4  5  2  0
  5  6  1  0
  6  7  2  0
  7  8  1  0
  8  9  2  0
  9 10  1  0
 10 11  2  0
 11 12  1  0
 12 13  2  0
 13 14  1  0
  9 15  1  0
 15 16  2  0
 15 17  2  0
 15 18  1  0
 18 19  1  0
 19 20  2  0
 20 21  1  0
 21 22  1  0
 21 23  2  0
 23 24  1  0
 24 25  2  0
 24 26  1  0
 13  4  1  0
 25 19  1  0
 12  7  1  0
M  END
>  <AAScore>  (1) 
-5.9443713025781495

>  <RootName>  (1) 
./4ZLY/04_DeltaGEst/trajectory_05/rank_01/lead_0226

$$$$
