confid_5
     RDKit          3D

 26 28  0  0  0  0  0  0  0  0999 V2000
   24.5700   26.8800   35.5900 N   0  0  0  0  0  0  0  0  0  0  0  0
   25.5000   26.4000   34.6900 C   0  0  0  0  0  0  0  0  0  0  0  0
   25.1700   25.5200   33.9100 O   0  0  0  0  0  0  0  0  0  0  0  0
   26.8400   27.0200   34.7400 C   0  0  0  0  0  0  0  0  0  0  0  0
   27.3800   27.2800   35.9400 N   0  0  0  0  0  0  0  0  0  0  0  0
   28.6200   27.7400   36.0300 N   0  0  0  0  0  0  0  0  0  0  0  0
   29.3800   28.0000   34.9600 C   0  0  0  0  0  0  0  0  0  0  0  0
   30.6700   28.5000   35.1300 C   0  0  0  0  0  0  0  0  0  0  0  0
   31.5400   28.6100   34.0300 C   0  0  0  0  0  0  0  0  0  0  0  0
   31.0900   28.2200   32.7700 C   0  0  0  0  0  0  0  0  0  0  0  0
   29.8000   27.7000   32.6000 C   0  0  0  0  0  0  0  0  0  0  0  0
   28.9600   27.5500   33.7100 C   0  0  0  0  0  0  0  0  0  0  0  0
   27.6600   27.0300   33.5900 C   0  0  0  0  0  0  0  0  0  0  0  0
   27.1600   26.7400   32.3400 N   0  0  0  0  0  0  0  0  0  0  0  0
   32.9079   29.1466   34.2057 C   0  0  0  0  0  0  0  0  0  0  0  0
   33.1397   30.3959   34.8302 C   0  0  0  0  0  0  0  0  0  0  0  0
   32.0520   31.2545   35.2089 N   0  0  0  0  0  0  0  0  0  0  0  0
   31.2586   31.9119   34.1719 C   0  0  0  0  0  0  0  0  0  0  0  0
   31.8693   31.7303   36.8704 S   0  0  0  0  0  6  0  0  0  0  0  0
   32.3969   33.1250   37.0545 O   0  0  0  0  0  0  0  0  0  0  0  0
   32.6402   30.7889   37.7532 O   0  0  0  0  0  0  0  0  0  0  0  0
   30.1534   31.6675   37.3431 C   0  0  0  0  0  0  0  0  0  0  0  0
   34.4579   30.8335   35.0331 C   0  0  0  0  0  0  0  0  0  0  0  0
   35.5362   30.0541   34.6104 C   0  0  0  0  0  0  0  0  0  0  0  0
   35.3096   28.8320   33.9768 C   0  0  0  0  0  0  0  0  0  0  0  0
   34.0040   28.3797   33.7740 C   0  0  0  0  0  0  0  0  0  0  0  0
  1  2  1  0
  2  3  2  0
  2  4  1  0
  4  5  2  0
  5  6  1  0
  6  7  2  0
  7  8  1  0
  8  9  2  0
  9 10  1  0
 10 11  2  0
 11 12  1  0
 12 13  2  0
 13 14  1  0
  9 15  1  0
 15 16  2  0
 16 17  1  0
 17 18  1  0
 17 19  1  0
 19 20  2  0
 19 21  2  0
 19 22  1  0
 16 23  1  0
 23 24  2  0
 24 25  1  0
 25 26  2  0
 13  4  1  0
 26 15  1  0
 12  7  1  0
M  END
>  <AAScore>  (1) 
-5.980967068241301

>  <RootName>  (1) 
./4ZLY/04_DeltaGEst/trajectory_05/rank_01/lead_0444

$$$$
