confid_18
     RDKit          3D

 29 32  0  0  0  0  0  0  0  0999 V2000
   24.4800   26.1000   36.1300 N   0  0  0  0  0  0  0  0  0  0  0  0
   25.2500   26.2500   34.9900 C   0  0  0  0  0  0  0  0  0  0  0  0
   24.7400   25.7600   33.9900 O   0  0  0  0  0  0  0  0  0  0  0  0
   26.5900   26.8900   34.9600 C   0  0  0  0  0  0  0  0  0  0  0  0
   27.0600   27.2400   36.1600 N   0  0  0  0  0  0  0  0  0  0  0  0
   28.3000   27.7100   36.2400 N   0  0  0  0  0  0  0  0  0  0  0  0
   29.0500   27.9600   35.1500 C   0  0  0  0  0  0  0  0  0  0  0  0
   30.3400   28.4900   35.2600 C   0  0  0  0  0  0  0  0  0  0  0  0
   31.1100   28.8200   34.1400 C   0  0  0  0  0  0  0  0  0  0  0  0
   30.5200   28.6700   32.8800 C   0  0  0  0  0  0  0  0  0  0  0  0
   29.2900   28.0200   32.7700 C   0  0  0  0  0  0  0  0  0  0  0  0
   28.5200   27.7100   33.8900 C   0  0  0  0  0  0  0  0  0  0  0  0
   27.2700   27.0800   33.7600 C   0  0  0  0  0  0  0  0  0  0  0  0
   26.7500   26.8800   32.4900 N   0  0  0  0  0  0  0  0  0  0  0  0
   23.4872   25.0759   36.3391 C   0  0  0  0  0  0  0  0  0  0  0  0
   23.3937   24.0044   35.4886 N   0  0  0  0  0  0  0  0  0  0  0  0
   22.4823   23.0061   35.6682 C   0  0  0  0  0  0  0  0  0  0  0  0
   21.6201   23.0759   36.7578 C   0  0  0  0  0  0  0  0  0  0  0  0
   20.5617   22.1053   37.1717 C   0  0  0  0  0  0  0  0  0  0  0  0
   20.0693   22.7811   38.4163 C   0  0  0  0  0  0  0  0  0  0  0  0
   19.1688   22.3122   39.1617 O   0  0  0  0  0  0  0  0  0  0  0  0
   20.7389   24.0148   38.6794 N   0  0  0  0  0  0  0  0  0  0  0  0
   21.6955   24.1343   37.6348 C   0  0  0  0  0  0  0  0  0  0  0  0
   22.6280   25.1565   37.4529 C   0  0  0  0  0  0  0  0  0  0  0  0
   20.6717   24.7898   39.9190 C   0  0  0  0  0  0  0  0  0  0  0  0
   21.6559   24.2518   40.9579 C   0  0  0  0  0  0  0  0  0  0  0  0
   22.9510   24.3349   40.4797 F   0  0  0  0  0  0  0  0  0  0  0  0
   21.3635   22.9325   41.2531 F   0  0  0  0  0  0  0  0  0  0  0  0
   21.5571   25.0023   42.1150 F   0  0  0  0  0  0  0  0  0  0  0  0
  1  2  1  0
  2  3  2  0
  2  4  1  0
  4  5  2  0
  5  6  1  0
  6  7  2  0
  7  8  1  0
  8  9  2  0
  9 10  1  0
 10 11  2  0
 11 12  1  0
 12 13  2  0
 13 14  1  0
  1 15  1  0
 15 16  2  0
 16 17  1  0
 17 18  2  0
 18 19  1  0
 19 20  1  0
 20 21  2  0
 20 22  1  0
 22 23  1  0
 23 24  2  0
 22 25  1  0
 25 26  1  0
 26 27  1  0
 26 28  1  0
 26 29  1  0
 13  4  1  0
 24 15  1  0
 12  7  1  0
 23 18  1  0
M  END
>  <AAScore>  (1) 
2446.908996687145

>  <RootName>  (1) 
./4ZLY/04_DeltaGEst/trajectory_00/rank_00/lead_0228

$$$$
