confid_5
     RDKit          3D

 29 32  0  0  0  0  0  0  0  0999 V2000
   24.5500   26.3900   36.2500 N   0  0  0  0  0  0  0  0  0  0  0  0
   25.6000   26.1300   35.4000 C   0  0  0  0  0  0  0  0  0  0  0  0
   25.4300   25.4300   34.4200 O   0  0  0  0  0  0  0  0  0  0  0  0
   26.9800   26.6300   35.7100 C   0  0  0  0  0  0  0  0  0  0  0  0
   27.3200   26.8200   36.9800 N   0  0  0  0  0  0  0  0  0  0  0  0
   28.4700   27.4000   37.3100 N   0  0  0  0  0  0  0  0  0  0  0  0
   29.4000   27.6300   36.3700 C   0  0  0  0  0  0  0  0  0  0  0  0
   30.6600   28.0500   36.8000 C   0  0  0  0  0  0  0  0  0  0  0  0
   31.5700   28.3600   35.7800 C   0  0  0  0  0  0  0  0  0  0  0  0
   31.3700   28.1000   34.4300 C   0  0  0  0  0  0  0  0  0  0  0  0
   30.1200   27.5900   34.0500 C   0  0  0  0  0  0  0  0  0  0  0  0
   29.1500   27.3400   35.0300 C   0  0  0  0  0  0  0  0  0  0  0  0
   27.8800   26.8900   34.6600 C   0  0  0  0  0  0  0  0  0  0  0  0
   27.4800   26.6100   33.3700 N   0  0  0  0  0  0  0  0  0  0  0  0
   30.9664   28.2971   38.1807 N   0  0  0  0  0  0  0  0  0  0  0  0
   32.0627   27.5560   38.8130 C   0  0  0  0  0  0  0  0  0  0  0  0
   31.9720   27.6541   40.3382 C   0  0  0  0  0  0  0  0  0  0  0  0
   30.5516   27.7069   40.7294 N   0  0  0  0  0  0  0  0  0  0  0  0
   30.3516   27.4088   42.1658 C   0  0  0  0  0  0  0  0  0  0  0  0
   29.6366   26.0630   42.3231 C   0  0  0  0  0  0  0  0  0  0  0  0
   30.4265   24.9375   41.7025 C   0  0  0  0  0  0  0  0  0  0  0  0
   30.1924   24.5397   40.3714 C   0  0  0  0  0  0  0  0  0  0  0  0
   29.2219   25.1328   39.6307 F   0  0  0  0  0  0  0  0  0  0  0  0
   30.9735   23.5349   39.7917 C   0  0  0  0  0  0  0  0  0  0  0  0
   31.9920   22.9244   40.5278 C   0  0  0  0  0  0  0  0  0  0  0  0
   32.2352   23.3190   41.8456 C   0  0  0  0  0  0  0  0  0  0  0  0
   31.4596   24.3241   42.4309 C   0  0  0  0  0  0  0  0  0  0  0  0
   29.9468   28.9977   40.3373 C   0  0  0  0  0  0  0  0  0  0  0  0
   30.3209   29.4049   38.8953 C   0  0  0  0  0  0  0  0  0  0  0  0
  1  2  1  0
  2  3  2  0
  2  4  1  0
  4  5  2  0
  5  6  1  0
  6  7  2  0
  7  8  1  0
  8  9  2  0
  9 10  1  0
 10 11  2  0
 11 12  1  0
 12 13  2  0
 13 14  1  0
  8 15  1  0
 15 16  1  0
 16 17  1  0
 17 18  1  0
 18 19  1  0
 19 20  1  0
 20 21  1  0
 21 22  2  0
 22 23  1  0
 22 24  1  0
 24 25  2  0
 25 26  1  0
 26 27  2  0
 18 28  1  0
 28 29  1  0
 13  4  1  0
 29 15  1  0
 12  7  1  0
 27 21  1  0
M  END
>  <AAScore>  (1) 
62.94590063411814

>  <RootName>  (1) 
./4ZLY/04_DeltaGEst/trajectory_01/rank_01/lead_0307

$$$$
