confid_0
     RDKit          3D

 26 29  0  0  0  0  0  0  0  0999 V2000
   24.5500   26.3900   36.2500 N   0  0  0  0  0  0  0  0  0  0  0  0
   25.6000   26.1300   35.4000 C   0  0  0  0  0  0  0  0  0  0  0  0
   25.4300   25.4300   34.4200 O   0  0  0  0  0  0  0  0  0  0  0  0
   26.9800   26.6300   35.7100 C   0  0  0  0  0  0  0  0  0  0  0  0
   27.3200   26.8200   36.9800 N   0  0  0  0  0  0  0  0  0  0  0  0
   28.4700   27.4000   37.3100 N   0  0  0  0  0  0  0  0  0  0  0  0
   29.4000   27.6300   36.3700 C   0  0  0  0  0  0  0  0  0  0  0  0
   30.6600   28.0500   36.8000 C   0  0  0  0  0  0  0  0  0  0  0  0
   31.5700   28.3600   35.7800 C   0  0  0  0  0  0  0  0  0  0  0  0
   31.3700   28.1000   34.4300 C   0  0  0  0  0  0  0  0  0  0  0  0
   30.1200   27.5900   34.0500 C   0  0  0  0  0  0  0  0  0  0  0  0
   29.1500   27.3400   35.0300 C   0  0  0  0  0  0  0  0  0  0  0  0
   27.8800   26.8900   34.6600 C   0  0  0  0  0  0  0  0  0  0  0  0
   27.4800   26.6100   33.3700 N   0  0  0  0  0  0  0  0  0  0  0  0
   31.0069   28.3131   38.2186 C   0  0  0  0  0  0  0  0  0  0  0  0
   32.1907   27.7683   38.7594 C   0  0  0  0  0  0  0  0  0  0  0  0
   32.5103   28.0366   40.0898 C   0  0  0  0  0  0  0  0  0  0  0  0
   33.7071   27.5569   40.8614 C   0  0  0  0  0  0  0  0  0  0  0  0
   33.5094   28.1512   42.1852 N   0  0  0  0  0  0  0  0  0  0  0  0
   32.3042   28.9073   42.1767 C   0  0  0  0  0  0  0  0  0  0  0  0
   31.8583   29.5413   43.1696 O   0  0  0  0  0  0  0  0  0  0  0  0
   31.6922   28.8279   40.8695 C   0  0  0  0  0  0  0  0  0  0  0  0
   30.5197   29.3954   40.3648 C   0  0  0  0  0  0  0  0  0  0  0  0
   29.4861   30.4157   41.3518 Cl  0  0  0  0  0  0  0  0  0  0  0  0
   30.1826   29.1351   39.0259 C   0  0  0  0  0  0  0  0  0  0  0  0
   34.4025   27.9940   43.3255 C   0  0  0  0  0  0  0  0  0  0  0  0
  1  2  1  0
  2  3  2  0
  2  4  1  0
  4  5  2  0
  5  6  1  0
  6  7  2  0
  7  8  1  0
  8  9  2  0
  9 10  1  0
 10 11  2  0
 11 12  1  0
 12 13  2  0
 13 14  1  0
  8 15  1  0
 15 16  2  0
 16 17  1  0
 17 18  1  0
 18 19  1  0
 19 20  1  0
 20 21  2  0
 20 22  1  0
 22 23  1  0
 23 24  1  0
 23 25  2  0
 19 26  1  0
 13  4  1  0
 25 15  1  0
 12  7  1  0
 22 17  2  0
M  END
>  <AAScore>  (1) 
213.98579702111024

>  <RootName>  (1) 
./4ZLY/04_DeltaGEst/trajectory_01/rank_01/lead_0106

$$$$
