confid_0
     RDKit          3D

 28 31  0  0  0  0  0  0  0  0999 V2000
   24.4800   26.1000   36.1300 N   0  0  0  0  0  0  0  0  0  0  0  0
   25.2500   26.2500   34.9900 C   0  0  0  0  0  0  0  0  0  0  0  0
   24.7400   25.7600   33.9900 O   0  0  0  0  0  0  0  0  0  0  0  0
   26.5900   26.8900   34.9600 C   0  0  0  0  0  0  0  0  0  0  0  0
   27.0600   27.2400   36.1600 N   0  0  0  0  0  0  0  0  0  0  0  0
   28.3000   27.7100   36.2400 N   0  0  0  0  0  0  0  0  0  0  0  0
   29.0500   27.9600   35.1500 C   0  0  0  0  0  0  0  0  0  0  0  0
   30.3400   28.4900   35.2600 C   0  0  0  0  0  0  0  0  0  0  0  0
   31.1100   28.8200   34.1400 C   0  0  0  0  0  0  0  0  0  0  0  0
   30.5200   28.6700   32.8800 C   0  0  0  0  0  0  0  0  0  0  0  0
   29.2900   28.0200   32.7700 C   0  0  0  0  0  0  0  0  0  0  0  0
   28.5200   27.7100   33.8900 C   0  0  0  0  0  0  0  0  0  0  0  0
   27.2700   27.0800   33.7600 C   0  0  0  0  0  0  0  0  0  0  0  0
   26.7500   26.8800   32.4900 N   0  0  0  0  0  0  0  0  0  0  0  0
   23.0432   26.0538   36.1441 C   0  0  0  0  0  0  0  0  0  0  0  0
   22.4329   25.4831   37.1577 N   0  0  0  0  0  0  0  0  0  0  0  0
   20.9936   25.4040   37.2720 C   0  0  0  0  0  0  0  0  0  0  0  0
   20.2498   25.9450   36.3138 C   0  0  0  0  0  0  0  0  0  0  0  0
   18.8739   25.9940   36.1995 O   0  0  0  0  0  0  0  0  0  0  0  0
   18.5505   26.6912   34.9863 C   0  0  1  0  0  0  0  0  0  0  0  0
   17.7039   27.9286   35.2956 C   0  0  0  0  0  0  0  0  0  0  0  0
   17.3830   28.5893   34.1235 F   0  0  0  0  0  0  0  0  0  0  0  0
   16.5335   27.5404   35.9217 F   0  0  0  0  0  0  0  0  0  0  0  0
   18.3950   28.7904   36.1298 F   0  0  0  0  0  0  0  0  0  0  0  0
   19.9076   27.0516   34.4054 C   0  0  0  0  0  0  0  0  0  0  0  0
   20.8505   26.5926   35.2076 C   0  0  0  0  0  0  0  0  0  0  0  0
   22.2689   26.6730   35.0885 N   0  0  0  0  0  0  0  0  0  0  0  0
   20.1893   27.8746   32.8808 Cl  0  0  0  0  0  0  0  0  0  0  0  0
  1  2  1  0
  2  3  2  0
  2  4  1  0
  4  5  2  0
  5  6  1  0
  6  7  2  0
  7  8  1  0
  8  9  2  0
  9 10  1  0
 10 11  2  0
 11 12  1  0
 12 13  2  0
 13 14  1  0
  1 15  1  0
 15 16  2  0
 16 17  1  0
 17 18  2  0
 18 19  1  0
 19 20  1  0
 20 21  1  1
 21 22  1  0
 21 23  1  0
 21 24  1  0
 20 25  1  0
 25 26  2  0
 26 27  1  0
 25 28  1  0
 13  4  1  0
 27 15  1  0
 12  7  1  0
 26 18  1  0
M  END
>  <AAScore>  (1) 
4434.462316607346

>  <RootName>  (1) 
./4ZLY/04_DeltaGEst/trajectory_00/rank_01/lead_0250

$$$$
