confid_12
     RDKit          3D

 28 31  0  0  0  0  0  0  0  0999 V2000
   24.2000   26.2400   35.6900 N   0  0  0  0  0  0  0  0  0  0  0  0
   24.8500   26.2800   34.4800 C   0  0  0  0  0  0  0  0  0  0  0  0
   24.3100   25.7400   33.5400 O   0  0  0  0  0  0  0  0  0  0  0  0
   26.1800   26.9700   34.4700 C   0  0  0  0  0  0  0  0  0  0  0  0
   26.6500   27.6000   35.5500 N   0  0  0  0  0  0  0  0  0  0  0  0
   27.7900   28.2700   35.6200 N   0  0  0  0  0  0  0  0  0  0  0  0
   28.5400   28.3000   34.5100 C   0  0  0  0  0  0  0  0  0  0  0  0
   29.7700   28.9400   34.5600 C   0  0  0  0  0  0  0  0  0  0  0  0
   30.7000   28.8900   33.5000 C   0  0  0  0  0  0  0  0  0  0  0  0
   30.3700   28.1400   32.3700 C   0  0  0  0  0  0  0  0  0  0  0  0
   29.1200   27.5200   32.2800 C   0  0  0  0  0  0  0  0  0  0  0  0
   28.2100   27.6100   33.3300 C   0  0  0  0  0  0  0  0  0  0  0  0
   26.9700   26.9700   33.3100 C   0  0  0  0  0  0  0  0  0  0  0  0
   26.5300   26.2400   32.2200 N   0  0  0  0  0  0  0  0  0  0  0  0
   30.1399   29.6622   35.7477 N   0  0  0  0  0  0  0  0  0  0  0  0
   30.5846   28.9305   36.9319 C   0  0  0  0  0  0  0  0  0  0  0  0
   29.9454   29.5458   38.1719 C   0  0  0  0  0  0  0  0  0  0  0  0
   30.0945   31.0486   38.1961 C   0  0  0  0  0  0  0  0  0  0  0  0
   29.9523   31.7301   39.4182 C   0  0  0  0  0  0  0  0  0  0  0  0
   29.7331   31.0448   40.5694 F   0  0  0  0  0  0  0  0  0  0  0  0
   30.0278   33.1224   39.4634 C   0  0  0  0  0  0  0  0  0  0  0  0
   30.2348   33.8524   38.2949 C   0  0  0  0  0  0  0  0  0  0  0  0
   30.3636   33.1972   37.0640 C   0  0  0  0  0  0  0  0  0  0  0  0
   30.2786   31.7892   37.0005 C   0  0  0  0  0  0  0  0  0  0  0  0
   30.4265   31.0960   35.6610 C   0  0  0  0  0  0  0  0  0  0  0  0
   30.5845   33.9693   35.8744 N   0  0  0  0  0  0  0  0  0  0  0  0
   31.9582   34.2715   35.4786 C   0  0  0  0  0  0  0  0  0  0  0  0
   29.5036   34.8125   35.3689 C   0  0  0  0  0  0  0  0  0  0  0  0
  1  2  1  0
  2  3  2  0
  2  4  1  0
  4  5  2  0
  5  6  1  0
  6  7  2  0
  7  8  1  0
  8  9  2  0
  9 10  1  0
 10 11  2  0
 11 12  1  0
 12 13  2  0
 13 14  1  0
  8 15  1  0
 15 16  1  0
 16 17  1  0
 17 18  1  0
 18 19  2  0
 19 20  1  0
 19 21  1  0
 21 22  2  0
 22 23  1  0
 23 24  2  0
 24 25  1  0
 23 26  1  0
 26 27  1  0
 26 28  1  0
 13  4  1  0
 25 15  1  0
 12  7  1  0
 24 18  1  0
M  END
>  <AAScore>  (1) 
-6.347110204739698

>  <RootName>  (1) 
./4ZLY/04_DeltaGEst/trajectory_04/rank_01/lead_0056

$$$$
