confid_4
     RDKit          3D

 28 31  0  0  0  0  0  0  0  0999 V2000
   24.6900   26.1200   35.5300 N   0  0  0  0  0  0  0  0  0  0  0  0
   25.6600   25.6700   34.6600 C   0  0  0  0  0  0  0  0  0  0  0  0
   25.2400   25.0100   33.7200 O   0  0  0  0  0  0  0  0  0  0  0  0
   27.0300   26.2200   34.8800 C   0  0  0  0  0  0  0  0  0  0  0  0
   27.3500   26.7300   36.0700 N   0  0  0  0  0  0  0  0  0  0  0  0
   28.5700   27.1800   36.3300 N   0  0  0  0  0  0  0  0  0  0  0  0
   29.5300   27.1100   35.3900 C   0  0  0  0  0  0  0  0  0  0  0  0
   30.8300   27.5700   35.6500 C   0  0  0  0  0  0  0  0  0  0  0  0
   31.8500   27.5400   34.6900 C   0  0  0  0  0  0  0  0  0  0  0  0
   31.5100   27.1200   33.4000 C   0  0  0  0  0  0  0  0  0  0  0  0
   30.2200   26.6300   33.1100 C   0  0  0  0  0  0  0  0  0  0  0  0
   29.2400   26.6600   34.1000 C   0  0  0  0  0  0  0  0  0  0  0  0
   27.9300   26.2600   33.8100 C   0  0  0  0  0  0  0  0  0  0  0  0
   27.5200   25.7100   32.6100 N   0  0  0  0  0  0  0  0  0  0  0  0
   23.3015   26.3099   35.2001 C   0  0  0  0  0  0  0  0  0  0  0  0
   22.3673   26.1681   36.1798 N   0  0  0  0  0  0  0  0  0  0  0  0
   21.0417   26.3635   35.9544 C   0  0  0  0  0  0  0  0  0  0  0  0
   20.5912   26.7408   34.6826 C   0  0  0  0  0  0  0  0  0  0  0  0
   19.1103   26.8989   34.4036 C   0  0  0  0  0  0  0  0  0  0  0  0
   18.4890   25.6852   33.8186 N   0  0  0  0  0  0  0  0  0  0  0  0
   17.2709   26.0044   33.0579 C   0  0  0  0  0  0  0  0  0  0  0  0
   19.3827   24.7446   33.0986 C   0  0  0  0  0  0  0  0  0  0  0  0
   19.8840   25.1988   31.7060 C   0  0  0  0  0  0  0  0  0  0  0  0
   20.2922   26.6026   31.5608 N   0  0  0  0  0  0  0  0  0  0  0  0
   21.0884   27.3176   32.3060 C   0  0  0  0  0  0  0  0  0  0  0  0
   21.5315   26.8800   33.6439 C   0  0  0  0  0  0  0  0  0  0  0  0
   22.8938   26.6969   33.9112 C   0  0  0  0  0  0  0  0  0  0  0  0
   21.4782   28.6846   31.8335 C   0  0  0  0  0  0  0  0  0  0  0  0
  1  2  1  0
  2  3  2  0
  2  4  1  0
  4  5  2  0
  5  6  1  0
  6  7  2  0
  7  8  1  0
  8  9  2  0
  9 10  1  0
 10 11  2  0
 11 12  1  0
 12 13  2  0
 13 14  1  0
  1 15  1  0
 15 16  2  0
 16 17  1  0
 17 18  2  0
 18 19  1  0
 19 20  1  0
 20 21  1  0
 20 22  1  0
 22 23  1  0
 23 24  1  0
 24 25  2  0
 25 26  1  0
 26 27  2  0
 25 28  1  0
 13  4  1  0
 27 15  1  0
 12  7  1  0
 26 18  1  0
M  END
>  <AAScore>  (1) 
811.0184076294316

>  <RootName>  (1) 
./4ZLY/04_DeltaGEst/trajectory_02/rank_00/lead_0063

$$$$
