confid_13
     RDKit          3D

 28 32  0  0  0  0  0  0  0  0999 V2000
   24.6900   26.1200   35.5300 N   0  0  0  0  0  0  0  0  0  0  0  0
   25.6600   25.6700   34.6600 C   0  0  0  0  0  0  0  0  0  0  0  0
   25.2400   25.0100   33.7200 O   0  0  0  0  0  0  0  0  0  0  0  0
   27.0300   26.2200   34.8800 C   0  0  0  0  0  0  0  0  0  0  0  0
   27.3500   26.7300   36.0700 N   0  0  0  0  0  0  0  0  0  0  0  0
   28.5700   27.1800   36.3300 N   0  0  0  0  0  0  0  0  0  0  0  0
   29.5300   27.1100   35.3900 C   0  0  0  0  0  0  0  0  0  0  0  0
   30.8300   27.5700   35.6500 C   0  0  0  0  0  0  0  0  0  0  0  0
   31.8500   27.5400   34.6900 C   0  0  0  0  0  0  0  0  0  0  0  0
   31.5100   27.1200   33.4000 C   0  0  0  0  0  0  0  0  0  0  0  0
   30.2200   26.6300   33.1100 C   0  0  0  0  0  0  0  0  0  0  0  0
   29.2400   26.6600   34.1000 C   0  0  0  0  0  0  0  0  0  0  0  0
   27.9300   26.2600   33.8100 C   0  0  0  0  0  0  0  0  0  0  0  0
   27.5200   25.7100   32.6100 N   0  0  0  0  0  0  0  0  0  0  0  0
   31.1484   28.0539   36.9640 N   0  0  0  0  0  0  0  0  0  0  0  0
   31.3327   27.1035   38.0745 C   0  0  0  0  0  0  0  0  0  0  0  0
   31.1541   27.7950   39.4462 C   0  0  0  0  0  0  0  0  0  0  0  0
   32.0619   29.0337   39.5989 C   0  0  0  0  0  0  0  0  0  0  0  0
   31.9536   29.8939   38.3754 C   0  0  0  0  0  0  0  0  0  0  0  0
   32.3381   31.1734   38.2182 N   0  0  0  0  0  0  0  0  0  0  0  0
   32.9549   32.0408   39.2242 C   0  0  0  0  0  0  0  0  0  0  0  0
   34.4560   31.7442   39.3190 C   0  0  0  0  0  0  0  0  0  0  0  0
   35.3847   32.7471   38.6510 C   0  0  0  0  0  0  0  0  0  0  0  0
   35.2383   32.7375   40.1641 C   0  0  0  0  0  0  0  0  0  0  0  0
   32.1470   31.4258   36.8959 C   0  0  0  0  0  0  0  0  0  0  0  0
   31.6695   30.3570   36.2109 N   0  0  0  0  0  0  0  0  0  0  0  0
   31.5655   29.4107   37.1632 C   0  0  0  0  0  0  0  0  0  0  0  0
   32.4847   32.7192   36.2247 C   0  0  0  0  0  0  0  0  0  0  0  0
  1  2  1  0
  2  3  2  0
  2  4  1  0
  4  5  2  0
  5  6  1  0
  6  7  2  0
  7  8  1  0
  8  9  2  0
  9 10  1  0
 10 11  2  0
 11 12  1  0
 12 13  2  0
 13 14  1  0
  8 15  1  0
 15 16  1  0
 16 17  1  0
 17 18  1  0
 18 19  1  0
 19 20  1  0
 20 21  1  0
 21 22  1  0
 22 23  1  0
 23 24  1  0
 20 25  1  0
 25 26  2  0
 26 27  1  0
 25 28  1  0
 13  4  1  0
 27 15  1  0
 12  7  1  0
 27 19  2  0
 24 22  1  0
M  END
>  <AAScore>  (1) 
-2.055759112005276

>  <RootName>  (1) 
./4ZLY/04_DeltaGEst/trajectory_02/rank_01/lead_0391

$$$$
