confid_11
     RDKit          3D

 30 34  0  0  0  0  0  0  0  0999 V2000
   24.5700   26.8800   35.5900 N   0  0  0  0  0  0  0  0  0  0  0  0
   25.5000   26.4000   34.6900 C   0  0  0  0  0  0  0  0  0  0  0  0
   25.1700   25.5200   33.9100 O   0  0  0  0  0  0  0  0  0  0  0  0
   26.8400   27.0200   34.7400 C   0  0  0  0  0  0  0  0  0  0  0  0
   27.3800   27.2800   35.9400 N   0  0  0  0  0  0  0  0  0  0  0  0
   28.6200   27.7400   36.0300 N   0  0  0  0  0  0  0  0  0  0  0  0
   29.3800   28.0000   34.9600 C   0  0  0  0  0  0  0  0  0  0  0  0
   30.6700   28.5000   35.1300 C   0  0  0  0  0  0  0  0  0  0  0  0
   31.5400   28.6100   34.0300 C   0  0  0  0  0  0  0  0  0  0  0  0
   31.0900   28.2200   32.7700 C   0  0  0  0  0  0  0  0  0  0  0  0
   29.8000   27.7000   32.6000 C   0  0  0  0  0  0  0  0  0  0  0  0
   28.9600   27.5500   33.7100 C   0  0  0  0  0  0  0  0  0  0  0  0
   27.6600   27.0300   33.5900 C   0  0  0  0  0  0  0  0  0  0  0  0
   27.1600   26.7400   32.3400 N   0  0  0  0  0  0  0  0  0  0  0  0
   23.1604   26.6709   35.4488 C   0  0  0  0  0  0  0  0  0  0  0  0
   22.5040   26.2669   36.4974 N   0  0  0  0  0  0  0  0  0  0  0  0
   21.1092   25.9706   36.6683 C   0  0  0  0  0  0  0  0  0  0  0  0
   20.4040   25.2732   35.7758 C   0  0  0  0  0  0  0  0  0  0  0  0
   20.4382   24.8474   34.3133 C   0  0  1  0  0  0  0  0  0  0  0  0
   21.8274   24.3506   33.8403 C   0  0  0  0  0  0  0  0  0  0  0  0
   22.4299   25.3314   32.9158 N   0  0  0  0  0  0  0  0  0  0  0  0
   22.8651   24.8738   31.5846 C   0  0  0  0  0  0  0  0  0  0  0  0
   22.9381   26.0320   30.5693 C   0  0  0  0  0  0  0  0  0  0  0  0
   21.8192   26.9853   30.7281 N   0  0  0  0  0  0  0  0  0  0  0  0
   20.5129   26.3694   30.4385 C   0  0  0  0  0  0  0  0  0  0  0  0
   21.8397   27.6571   32.0476 C   0  0  0  0  0  0  0  0  0  0  0  0
   22.2917   26.7513   33.1639 C   0  0  0  0  0  0  0  0  0  0  0  0
   22.4974   27.2827   34.3354 N   0  0  0  0  0  0  0  0  0  0  0  0
   19.3728   23.8056   34.4854 C   0  0  0  0  0  0  0  0  0  0  0  0
   19.2219   24.3254   35.8822 C   0  0  0  0  0  0  0  0  0  0  0  0
  1  2  1  0
  2  3  2  0
  2  4  1  0
  4  5  2  0
  5  6  1  0
  6  7  2  0
  7  8  1  0
  8  9  2  0
  9 10  1  0
 10 11  2  0
 11 12  1  0
 12 13  2  0
 13 14  1  0
  1 15  1  0
 15 16  2  0
 16 17  1  0
 17 18  2  0
 18 19  1  0
 19 20  1  1
 20 21  1  0
 21 22  1  0
 22 23  1  0
 23 24  1  0
 24 25  1  0
 24 26  1  0
 26 27  1  0
 27 28  2  0
 19 29  1  0
 29 30  1  0
 13  4  1  0
 28 15  1  0
 12  7  1  0
 30 18  1  0
 27 21  1  0
M  END
>  <AAScore>  (1) 
10840.196084416506

>  <RootName>  (1) 
./4ZLY/04_DeltaGEst/trajectory_05/rank_00/lead_0316

$$$$
