confid_9
     RDKit          3D

 29 33  0  0  0  0  0  0  0  0999 V2000
   24.5500   26.3900   36.2500 N   0  0  0  0  0  0  0  0  0  0  0  0
   25.6000   26.1300   35.4000 C   0  0  0  0  0  0  0  0  0  0  0  0
   25.4300   25.4300   34.4200 O   0  0  0  0  0  0  0  0  0  0  0  0
   26.9800   26.6300   35.7100 C   0  0  0  0  0  0  0  0  0  0  0  0
   27.3200   26.8200   36.9800 N   0  0  0  0  0  0  0  0  0  0  0  0
   28.4700   27.4000   37.3100 N   0  0  0  0  0  0  0  0  0  0  0  0
   29.4000   27.6300   36.3700 C   0  0  0  0  0  0  0  0  0  0  0  0
   30.6600   28.0500   36.8000 C   0  0  0  0  0  0  0  0  0  0  0  0
   31.5700   28.3600   35.7800 C   0  0  0  0  0  0  0  0  0  0  0  0
   31.3700   28.1000   34.4300 C   0  0  0  0  0  0  0  0  0  0  0  0
   30.1200   27.5900   34.0500 C   0  0  0  0  0  0  0  0  0  0  0  0
   29.1500   27.3400   35.0300 C   0  0  0  0  0  0  0  0  0  0  0  0
   27.8800   26.8900   34.6600 C   0  0  0  0  0  0  0  0  0  0  0  0
   27.4800   26.6100   33.3700 N   0  0  0  0  0  0  0  0  0  0  0  0
   23.1687   26.1514   35.9265 C   0  0  0  0  0  0  0  0  0  0  0  0
   22.8023   26.2532   34.6718 N   0  0  0  0  0  0  0  0  0  0  0  0
   21.5740   26.1567   33.9269 C   0  0  0  0  0  0  0  0  0  0  0  0
   20.3535   26.3075   34.4301 C   0  0  0  0  0  0  0  0  0  0  0  0
   19.0167   26.7585   33.9068 C   0  0  0  0  0  0  0  0  0  0  0  0
   18.4146   26.8496   35.1600 O   0  0  0  0  0  0  0  0  0  0  0  0
   19.5802   26.3288   35.7114 C   0  0  2  0  0  0  0  0  0  0  0  0
   20.2353   27.2380   36.7445 C   0  0  0  0  0  0  0  0  0  0  0  0
   21.1435   26.3573   37.5459 C   0  0  0  0  0  0  0  0  0  0  0  0
   22.2935   25.7434   37.0517 C   0  0  0  0  0  0  0  0  0  0  0  0
   22.6349   24.7739   37.9906 C   0  0  0  0  0  0  0  0  0  0  0  0
   21.6797   24.8066   38.9860 C   0  0  0  0  0  0  0  0  0  0  0  0
   20.7695   25.7576   38.7054 N   0  0  0  0  0  0  0  0  0  0  0  0
   19.5363   25.9865   39.4591 C   0  0  0  0  0  0  0  0  0  0  0  0
   23.8302   23.8698   37.9651 C   0  0  0  0  0  0  0  0  0  0  0  0
  1  2  1  0
  2  3  2  0
  2  4  1  0
  4  5  2  0
  5  6  1  0
  6  7  2  0
  7  8  1  0
  8  9  2  0
  9 10  1  0
 10 11  2  0
 11 12  1  0
 12 13  2  0
 13 14  1  0
  1 15  1  0
 15 16  2  0
 16 17  1  0
 17 18  2  0
 18 19  1  0
 19 20  1  0
 20 21  1  0
 21 22  1  1
 22 23  1  0
 23 24  2  0
 24 25  1  0
 25 26  2  0
 26 27  1  0
 27 28  1  0
 25 29  1  0
 13  4  1  0
 24 15  1  0
 12  7  1  0
 21 18  1  0
 27 23  1  0
M  END
>  <AAScore>  (1) 
235.4348956637952

>  <RootName>  (1) 
./4ZLY/04_DeltaGEst/trajectory_01/rank_00/lead_0481

$$$$
