confid_0
     RDKit          3D

 28 31  0  0  0  0  0  0  0  0999 V2000
   24.5500   26.3900   36.2500 N   0  0  0  0  0  0  0  0  0  0  0  0
   25.6000   26.1300   35.4000 C   0  0  0  0  0  0  0  0  0  0  0  0
   25.4300   25.4300   34.4200 O   0  0  0  0  0  0  0  0  0  0  0  0
   26.9800   26.6300   35.7100 C   0  0  0  0  0  0  0  0  0  0  0  0
   27.3200   26.8200   36.9800 N   0  0  0  0  0  0  0  0  0  0  0  0
   28.4700   27.4000   37.3100 N   0  0  0  0  0  0  0  0  0  0  0  0
   29.4000   27.6300   36.3700 C   0  0  0  0  0  0  0  0  0  0  0  0
   30.6600   28.0500   36.8000 C   0  0  0  0  0  0  0  0  0  0  0  0
   31.5700   28.3600   35.7800 C   0  0  0  0  0  0  0  0  0  0  0  0
   31.3700   28.1000   34.4300 C   0  0  0  0  0  0  0  0  0  0  0  0
   30.1200   27.5900   34.0500 C   0  0  0  0  0  0  0  0  0  0  0  0
   29.1500   27.3400   35.0300 C   0  0  0  0  0  0  0  0  0  0  0  0
   27.8800   26.8900   34.6600 C   0  0  0  0  0  0  0  0  0  0  0  0
   27.4800   26.6100   33.3700 N   0  0  0  0  0  0  0  0  0  0  0  0
   23.2505   25.7060   36.1530 C   0  0  0  0  0  0  0  0  0  0  0  0
   23.3817   24.2482   36.6357 C   0  0  0  0  0  0  0  0  0  0  0  0
   23.8511   24.2015   38.1005 C   0  0  0  0  0  0  0  0  0  0  0  0
   23.2777   25.3104   38.8830 N   0  0  0  0  0  0  0  0  0  0  0  0
   24.0231   25.9113   39.9632 C   0  0  0  0  0  0  0  0  0  0  0  0
   23.9238   27.1528   40.1666 O   0  0  0  0  0  0  0  0  0  0  0  0
   24.9030   25.1062   40.8423 C   0  0  0  0  0  0  0  0  0  0  0  0
   25.8678   25.7248   41.6564 C   0  0  0  0  0  0  0  0  0  0  0  0
   26.6724   24.9407   42.4862 C   0  0  0  0  0  0  0  0  0  0  0  0
   26.5093   23.5552   42.5058 C   0  0  0  0  0  0  0  0  0  0  0  0
   25.5376   22.9718   41.6911 C   0  0  0  0  0  0  0  0  0  0  0  0
   24.7633   23.7516   40.8902 N   0  0  0  0  0  0  0  0  0  0  0  0
   22.0256   25.9232   38.4181 C   0  0  0  0  0  0  0  0  0  0  0  0
   22.1740   26.4570   36.9795 C   0  0  0  0  0  0  0  0  0  0  0  0
  1  2  1  0
  2  3  2  0
  2  4  1  0
  4  5  2  0
  5  6  1  0
  6  7  2  0
  7  8  1  0
  8  9  2  0
  9 10  1  0
 10 11  2  0
 11 12  1  0
 12 13  2  0
 13 14  1  0
  1 15  1  0
 15 16  1  0
 16 17  1  0
 17 18  1  0
 18 19  1  0
 19 20  2  0
 19 21  1  0
 21 22  2  0
 22 23  1  0
 23 24  2  0
 24 25  1  0
 25 26  2  0
 18 27  1  0
 27 28  1  0
 13  4  1  0
 28 15  1  0
 12  7  1  0
 26 21  1  0
M  END
>  <AAScore>  (1) 
138.99662755543957

>  <RootName>  (1) 
./4ZLY/04_DeltaGEst/trajectory_01/rank_00/lead_0187

$$$$
