confid_0
     RDKit          3D

 27 30  0  0  0  0  0  0  0  0999 V2000
   24.5500   26.3900   36.2500 N   0  0  0  0  0  0  0  0  0  0  0  0
   25.6000   26.1300   35.4000 C   0  0  0  0  0  0  0  0  0  0  0  0
   25.4300   25.4300   34.4200 O   0  0  0  0  0  0  0  0  0  0  0  0
   26.9800   26.6300   35.7100 C   0  0  0  0  0  0  0  0  0  0  0  0
   27.3200   26.8200   36.9800 N   0  0  0  0  0  0  0  0  0  0  0  0
   28.4700   27.4000   37.3100 N   0  0  0  0  0  0  0  0  0  0  0  0
   29.4000   27.6300   36.3700 C   0  0  0  0  0  0  0  0  0  0  0  0
   30.6600   28.0500   36.8000 C   0  0  0  0  0  0  0  0  0  0  0  0
   31.5700   28.3600   35.7800 C   0  0  0  0  0  0  0  0  0  0  0  0
   31.3700   28.1000   34.4300 C   0  0  0  0  0  0  0  0  0  0  0  0
   30.1200   27.5900   34.0500 C   0  0  0  0  0  0  0  0  0  0  0  0
   29.1500   27.3400   35.0300 C   0  0  0  0  0  0  0  0  0  0  0  0
   27.8800   26.8900   34.6600 C   0  0  0  0  0  0  0  0  0  0  0  0
   27.4800   26.6100   33.3700 N   0  0  0  0  0  0  0  0  0  0  0  0
   30.9583   28.3166   38.1815 N   0  0  0  0  0  0  0  0  0  0  0  0
   31.3778   29.6597   38.5953 C   0  0  0  0  0  0  0  0  0  0  0  0
   31.1024   29.8710   40.0885 C   0  0  0  0  0  0  0  0  0  0  0  0
   29.8608   29.1620   40.4518 N   0  0  0  0  0  0  0  0  0  0  0  0
   30.0588   27.6915   40.4014 C   0  0  0  0  0  0  0  0  0  0  0  0
   30.8948   27.2473   39.1823 C   0  0  0  0  0  0  0  0  0  0  0  0
   29.3606   29.6004   41.7732 C   0  0  0  0  0  0  0  0  0  0  0  0
   27.8748   29.2555   41.9528 C   0  0  0  0  0  0  0  0  0  0  0  0
   27.0461   29.7980   40.8217 C   0  0  0  0  0  0  0  0  0  0  0  0
   26.5775   29.0060   39.7612 C   0  0  0  0  0  0  0  0  0  0  0  0
   25.8932   29.7249   38.7919 C   0  0  0  0  0  0  0  0  0  0  0  0
   25.8780   31.3399   39.2551 S   0  0  0  0  0  0  0  0  0  0  0  0
   26.7352   31.1471   40.6872 C   0  0  0  0  0  0  0  0  0  0  0  0
  1  2  1  0
  2  3  2  0
  2  4  1  0
  4  5  2  0
  5  6  1  0
  6  7  2  0
  7  8  1  0
  8  9  2  0
  9 10  1  0
 10 11  2  0
 11 12  1  0
 12 13  2  0
 13 14  1  0
  8 15  1  0
 15 16  1  0
 16 17  1  0
 17 18  1  0
 18 19  1  0
 19 20  1  0
 18 21  1  0
 21 22  1  0
 22 23  1  0
 23 24  1  0
 24 25  2  0
 25 26  1  0
 26 27  1  0
 13  4  1  0
 20 15  1  0
 27 23  2  0
 12  7  1  0
M  END
>  <AAScore>  (1) 
29.107036199574324

>  <RootName>  (1) 
./4ZLY/04_DeltaGEst/trajectory_01/rank_01/lead_0285

$$$$
