confid_8
     RDKit          3D

 29 31  0  0  0  0  0  0  0  0999 V2000
   24.5500   26.3900   36.2500 N   0  0  0  0  0  0  0  0  0  0  0  0
   25.6000   26.1300   35.4000 C   0  0  0  0  0  0  0  0  0  0  0  0
   25.4300   25.4300   34.4200 O   0  0  0  0  0  0  0  0  0  0  0  0
   26.9800   26.6300   35.7100 C   0  0  0  0  0  0  0  0  0  0  0  0
   27.3200   26.8200   36.9800 N   0  0  0  0  0  0  0  0  0  0  0  0
   28.4700   27.4000   37.3100 N   0  0  0  0  0  0  0  0  0  0  0  0
   29.4000   27.6300   36.3700 C   0  0  0  0  0  0  0  0  0  0  0  0
   30.6600   28.0500   36.8000 C   0  0  0  0  0  0  0  0  0  0  0  0
   31.5700   28.3600   35.7800 C   0  0  0  0  0  0  0  0  0  0  0  0
   31.3700   28.1000   34.4300 C   0  0  0  0  0  0  0  0  0  0  0  0
   30.1200   27.5900   34.0500 C   0  0  0  0  0  0  0  0  0  0  0  0
   29.1500   27.3400   35.0300 C   0  0  0  0  0  0  0  0  0  0  0  0
   27.8800   26.8900   34.6600 C   0  0  0  0  0  0  0  0  0  0  0  0
   27.4800   26.6100   33.3700 N   0  0  0  0  0  0  0  0  0  0  0  0
   23.7079   25.3609   36.8791 C   0  0  1  0  0  0  0  0  0  0  0  0
   22.8178   24.6117   35.8454 C   0  0  0  0  0  0  0  0  0  0  0  0
   23.4473   23.3917   35.1344 C   0  0  0  0  0  0  0  0  0  0  0  0
   22.7418   22.1434   35.4777 N   0  0  0  0  0  0  0  0  0  0  0  0
   22.8974   21.5143   36.7704 C   0  0  0  0  0  0  0  0  0  0  0  0
   21.9212   20.9077   37.2895 O   0  0  0  0  0  0  0  0  0  0  0  0
   24.2214   21.5069   37.4991 C   0  0  0  0  0  0  0  0  0  0  0  0
   24.2168   22.1921   38.7459 O   0  0  0  0  0  0  0  0  0  0  0  0
   23.6828   23.5045   38.6643 C   0  0  0  0  0  0  0  0  0  0  0  0
   24.5496   24.4769   37.8290 C   0  0  0  0  0  0  0  0  0  0  0  0
   21.8587   21.5118   34.4836 C   0  0  0  0  0  0  0  0  0  0  0  0
   22.4402   20.1703   34.0131 C   0  0  0  0  0  0  0  0  0  0  0  0
   23.8558   20.3187   33.6041 N   0  0  0  0  0  0  0  0  0  0  0  0
   24.5556   19.0263   33.6960 C   0  0  0  0  0  0  0  0  0  0  0  0
   23.9611   20.8348   32.2262 C   0  0  0  0  0  0  0  0  0  0  0  0
  1  2  1  0
  2  3  2  0
  2  4  1  0
  4  5  2  0
  5  6  1  0
  6  7  2  0
  7  8  1  0
  8  9  2  0
  9 10  1  0
 10 11  2  0
 11 12  1  0
 12 13  2  0
 13 14  1  0
 15  1  1  6
 15 16  1  0
 16 17  1  0
 17 18  1  0
 18 19  1  0
 19 20  2  0
 19 21  1  0
 21 22  1  0
 22 23  1  0
 23 24  1  0
 18 25  1  0
 25 26  1  0
 26 27  1  0
 27 28  1  0
 27 29  1  0
 13  4  1  0
 24 15  1  0
 12  7  1  0
M  END
>  <AAScore>  (1) 
903.5993488373538

>  <RootName>  (1) 
./4ZLY/04_DeltaGEst/trajectory_01/rank_00/lead_0240

$$$$
