confid_16
     RDKit          3D

 30 33  0  0  0  0  0  0  0  0999 V2000
   25.3300   26.2600   34.7600 N   0  0  0  0  0  0  0  0  0  0  0  0
   26.1200   25.9200   33.6900 C   0  0  0  0  0  0  0  0  0  0  0  0
   25.6300   25.1100   32.9400 O   0  0  0  0  0  0  0  0  0  0  0  0
   27.5200   26.3800   33.4600 C   0  0  0  0  0  0  0  0  0  0  0  0
   28.1600   26.6300   34.6100 N   0  0  0  0  0  0  0  0  0  0  0  0
   29.4800   26.8500   34.5700 N   0  0  0  0  0  0  0  0  0  0  0  0
   30.1900   26.7800   33.4400 C   0  0  0  0  0  0  0  0  0  0  0  0
   31.5600   27.0500   33.5000 C   0  0  0  0  0  0  0  0  0  0  0  0
   32.2700   27.2400   32.3100 C   0  0  0  0  0  0  0  0  0  0  0  0
   31.6100   27.2500   31.0800 C   0  0  0  0  0  0  0  0  0  0  0  0
   30.2700   26.8700   31.0600 C   0  0  0  0  0  0  0  0  0  0  0  0
   29.5100   26.6900   32.2300 C   0  0  0  0  0  0  0  0  0  0  0  0
   28.1400   26.4100   32.2000 C   0  0  0  0  0  0  0  0  0  0  0  0
   27.4300   26.1300   31.0500 N   0  0  0  0  0  0  0  0  0  0  0  0
   26.5153   27.1330   30.4972 C   0  0  0  0  0  0  0  0  0  0  0  0
   26.6305   27.1592   28.9709 C   0  0  0  0  0  0  0  0  0  0  0  0
   26.5639   25.8066   28.3929 N   0  0  0  0  0  0  0  0  0  0  0  0
   26.3969   25.6763   26.9646 C   0  0  0  0  0  0  0  0  0  0  0  0
   26.6894   26.6471   26.2132 O   0  0  0  0  0  0  0  0  0  0  0  0
   25.9117   24.3975   26.3420 C   0  0  0  0  0  0  0  0  0  0  0  0
   25.3714   24.6544   25.0474 O   0  0  0  0  0  0  0  0  0  0  0  0
   24.8390   23.6702   24.2016 C   0  0  0  0  0  0  0  0  0  0  0  0
   24.7893   22.3091   24.5629 C   0  0  0  0  0  0  0  0  0  0  0  0
   24.2479   21.3668   23.6826 C   0  0  0  0  0  0  0  0  0  0  0  0
   23.7529   21.7708   22.4387 C   0  0  0  0  0  0  0  0  0  0  0  0
   23.0744   20.5870   21.3365 Cl  0  0  0  0  0  0  0  0  0  0  0  0
   23.7998   23.1202   22.0750 C   0  0  0  0  0  0  0  0  0  0  0  0
   24.3405   24.0642   22.9533 C   0  0  0  0  0  0  0  0  0  0  0  0
   26.5672   24.6262   29.2731 C   0  0  0  0  0  0  0  0  0  0  0  0
   27.5669   24.8094   30.4207 C   0  0  0  0  0  0  0  0  0  0  0  0
  1  2  1  0
  2  3  2  0
  2  4  1  0
  4  5  2  0
  5  6  1  0
  6  7  2  0
  7  8  1  0
  8  9  2  0
  9 10  1  0
 10 11  2  0
 11 12  1  0
 12 13  2  0
 13 14  1  0
 14 15  1  0
 15 16  1  0
 16 17  1  0
 17 18  1  0
 18 19  2  0
 18 20  1  0
 20 21  1  0
 21 22  1  0
 22 23  2  0
 23 24  1  0
 24 25  2  0
 25 26  1  0
 25 27  1  0
 27 28  2  0
 17 29  1  0
 29 30  1  0
 13  4  1  0
 30 14  1  0
 12  7  1  0
 28 22  1  0
M  END
>  <AAScore>  (1) 
2.7722008646784597

>  <RootName>  (1) 
./4ZLY/04_DeltaGEst/trajectory_03/rank_01/lead_0487

$$$$
