confid_1
     RDKit          3D

 27 30  0  0  0  0  0  0  0  0999 V2000
   24.4800   26.1000   36.1300 N   0  0  0  0  0  0  0  0  0  0  0  0
   25.2500   26.2500   34.9900 C   0  0  0  0  0  0  0  0  0  0  0  0
   24.7400   25.7600   33.9900 O   0  0  0  0  0  0  0  0  0  0  0  0
   26.5900   26.8900   34.9600 C   0  0  0  0  0  0  0  0  0  0  0  0
   27.0600   27.2400   36.1600 N   0  0  0  0  0  0  0  0  0  0  0  0
   28.3000   27.7100   36.2400 N   0  0  0  0  0  0  0  0  0  0  0  0
   29.0500   27.9600   35.1500 C   0  0  0  0  0  0  0  0  0  0  0  0
   30.3400   28.4900   35.2600 C   0  0  0  0  0  0  0  0  0  0  0  0
   31.1100   28.8200   34.1400 C   0  0  0  0  0  0  0  0  0  0  0  0
   30.5200   28.6700   32.8800 C   0  0  0  0  0  0  0  0  0  0  0  0
   29.2900   28.0200   32.7700 C   0  0  0  0  0  0  0  0  0  0  0  0
   28.5200   27.7100   33.8900 C   0  0  0  0  0  0  0  0  0  0  0  0
   27.2700   27.0800   33.7600 C   0  0  0  0  0  0  0  0  0  0  0  0
   26.7500   26.8800   32.4900 N   0  0  0  0  0  0  0  0  0  0  0  0
   23.4876   25.0752   36.3382 C   0  0  0  0  0  0  0  0  0  0  0  0
   23.3969   24.0084   35.4946 N   0  0  0  0  0  0  0  0  0  0  0  0
   22.4801   23.0185   35.6694 C   0  0  0  0  0  0  0  0  0  0  0  0
   22.4735   21.8383   34.7347 C   0  0  0  0  0  0  0  0  0  0  0  0
   21.0636   21.2506   34.5981 C   0  0  0  0  0  0  0  0  0  0  0  0
   20.4880   20.9755   35.9219 N   0  0  0  0  0  0  0  0  0  0  0  0
   19.6736   19.7742   36.1377 C   0  0  0  0  0  0  0  0  0  0  0  0
   18.2113   20.0573   35.8131 C   0  0  0  0  0  0  0  0  0  0  0  0
   20.6267   21.9719   36.9531 C   0  0  0  0  0  0  0  0  0  0  0  0
   19.9299   21.9081   38.0029 O   0  0  0  0  0  0  0  0  0  0  0  0
   21.6077   23.0608   36.7714 C   0  0  0  0  0  0  0  0  0  0  0  0
   21.6918   24.1399   37.6615 C   0  0  0  0  0  0  0  0  0  0  0  0
   22.6322   25.1485   37.4460 C   0  0  0  0  0  0  0  0  0  0  0  0
  1  2  1  0
  2  3  2  0
  2  4  1  0
  4  5  2  0
  5  6  1  0
  6  7  2  0
  7  8  1  0
  8  9  2  0
  9 10  1  0
 10 11  2  0
 11 12  1  0
 12 13  2  0
 13 14  1  0
  1 15  1  0
 15 16  2  0
 16 17  1  0
 17 18  1  0
 18 19  1  0
 19 20  1  0
 20 21  1  0
 21 22  1  0
 20 23  1  0
 23 24  2  0
 23 25  1  0
 25 26  1  0
 26 27  2  0
 13  4  1  0
 27 15  1  0
 12  7  1  0
 25 17  2  0
M  END
>  <AAScore>  (1) 
255.69102323647544

>  <RootName>  (1) 
./4ZLY/04_DeltaGEst/trajectory_00/rank_01/lead_0378

$$$$
