confid_7
     RDKit          3D

 27 30  0  0  0  0  0  0  0  0999 V2000
   24.6900   26.1200   35.5300 N   0  0  0  0  0  0  0  0  0  0  0  0
   25.6600   25.6700   34.6600 C   0  0  0  0  0  0  0  0  0  0  0  0
   25.2400   25.0100   33.7200 O   0  0  0  0  0  0  0  0  0  0  0  0
   27.0300   26.2200   34.8800 C   0  0  0  0  0  0  0  0  0  0  0  0
   27.3500   26.7300   36.0700 N   0  0  0  0  0  0  0  0  0  0  0  0
   28.5700   27.1800   36.3300 N   0  0  0  0  0  0  0  0  0  0  0  0
   29.5300   27.1100   35.3900 C   0  0  0  0  0  0  0  0  0  0  0  0
   30.8300   27.5700   35.6500 C   0  0  0  0  0  0  0  0  0  0  0  0
   31.8500   27.5400   34.6900 C   0  0  0  0  0  0  0  0  0  0  0  0
   31.5100   27.1200   33.4000 C   0  0  0  0  0  0  0  0  0  0  0  0
   30.2200   26.6300   33.1100 C   0  0  0  0  0  0  0  0  0  0  0  0
   29.2400   26.6600   34.1000 C   0  0  0  0  0  0  0  0  0  0  0  0
   27.9300   26.2600   33.8100 C   0  0  0  0  0  0  0  0  0  0  0  0
   27.5200   25.7100   32.6100 N   0  0  0  0  0  0  0  0  0  0  0  0
   31.1540   28.0614   36.9627 N   0  0  0  0  0  0  0  0  0  0  0  0
   31.2183   27.1290   38.0932 C   0  0  0  0  0  0  0  0  0  0  0  0
   30.3634   27.6092   39.2737 C   0  0  0  0  0  0  0  0  0  0  0  0
   30.9437   28.8780   39.9294 C   0  0  0  0  0  0  0  0  0  0  0  0
   30.4411   30.1513   39.3520 N   0  0  0  0  0  0  0  0  0  0  0  0
   29.1643   30.5610   39.9792 C   0  0  0  0  0  0  0  0  0  0  0  0
   28.8660   32.0041   39.6973 C   0  0  0  0  0  0  0  0  0  0  0  0
   29.6107   33.0500   40.2345 C   0  0  0  0  0  0  0  0  0  0  0  0
   28.9731   34.4839   39.6345 S   0  0  0  0  0  0  0  0  0  0  0  0
   27.7877   33.7206   38.7203 C   0  0  0  0  0  0  0  0  0  0  0  0
   27.8629   32.3792   38.8571 N   0  0  0  0  0  0  0  0  0  0  0  0
   30.3485   30.1998   37.8690 C   0  0  0  0  0  0  0  0  0  0  0  0
   31.4929   29.4774   37.1433 C   0  0  0  0  0  0  0  0  0  0  0  0
  1  2  1  0
  2  3  2  0
  2  4  1  0
  4  5  2  0
  5  6  1  0
  6  7  2  0
  7  8  1  0
  8  9  2  0
  9 10  1  0
 10 11  2  0
 11 12  1  0
 12 13  2  0
 13 14  1  0
  8 15  1  0
 15 16  1  0
 16 17  1  0
 17 18  1  0
 18 19  1  0
 19 20  1  0
 20 21  1  0
 21 22  2  0
 22 23  1  0
 23 24  1  0
 24 25  2  0
 19 26  1  0
 26 27  1  0
 13  4  1  0
 27 15  1  0
 12  7  1  0
 25 21  1  0
M  END
>  <AAScore>  (1) 
1.7367063626321593

>  <RootName>  (1) 
./4ZLY/04_DeltaGEst/trajectory_02/rank_01/lead_0264

$$$$
