confid_11
     RDKit          3D

 27 30  0  0  0  0  0  0  0  0999 V2000
   24.4800   26.1000   36.1300 N   0  0  0  0  0  0  0  0  0  0  0  0
   25.2500   26.2500   34.9900 C   0  0  0  0  0  0  0  0  0  0  0  0
   24.7400   25.7600   33.9900 O   0  0  0  0  0  0  0  0  0  0  0  0
   26.5900   26.8900   34.9600 C   0  0  0  0  0  0  0  0  0  0  0  0
   27.0600   27.2400   36.1600 N   0  0  0  0  0  0  0  0  0  0  0  0
   28.3000   27.7100   36.2400 N   0  0  0  0  0  0  0  0  0  0  0  0
   29.0500   27.9600   35.1500 C   0  0  0  0  0  0  0  0  0  0  0  0
   30.3400   28.4900   35.2600 C   0  0  0  0  0  0  0  0  0  0  0  0
   31.1100   28.8200   34.1400 C   0  0  0  0  0  0  0  0  0  0  0  0
   30.5200   28.6700   32.8800 C   0  0  0  0  0  0  0  0  0  0  0  0
   29.2900   28.0200   32.7700 C   0  0  0  0  0  0  0  0  0  0  0  0
   28.5200   27.7100   33.8900 C   0  0  0  0  0  0  0  0  0  0  0  0
   27.2700   27.0800   33.7600 C   0  0  0  0  0  0  0  0  0  0  0  0
   26.7500   26.8800   32.4900 N   0  0  0  0  0  0  0  0  0  0  0  0
   23.9706   24.8310   36.5692 C   0  0  0  0  0  0  0  0  0  0  0  0
   24.0006   23.7928   35.7750 N   0  0  0  0  0  0  0  0  0  0  0  0
   23.6830   22.4552   36.1941 C   0  0  0  0  0  0  0  0  0  0  0  0
   22.7918   22.2149   37.1733 C   0  0  0  0  0  0  0  0  0  0  0  0
   23.2090   21.3030   38.3004 C   0  0  0  0  0  0  0  0  0  0  0  0
   23.7350   22.0940   39.4443 N   0  0  0  0  0  0  0  0  0  0  0  0
   24.0068   21.2035   40.5936 C   0  0  0  0  0  0  0  0  0  0  0  0
   23.9477   21.9836   41.9058 C   0  0  0  0  0  0  0  0  0  0  0  0
   24.9310   22.9123   39.0878 C   0  0  0  0  0  0  0  0  0  0  0  0
   24.5804   24.4125   38.9767 C   0  0  0  0  0  0  0  0  0  0  0  0
   23.5692   24.6783   37.9440 N   0  0  0  0  0  0  0  0  0  0  0  0
   22.1540   24.4118   38.2254 C   0  0  0  0  0  0  0  0  0  0  0  0
   21.6677   23.1929   37.4288 C   0  0  0  0  0  0  0  0  0  0  0  0
  1  2  1  0
  2  3  2  0
  2  4  1  0
  4  5  2  0
  5  6  1  0
  6  7  2  0
  7  8  1  0
  8  9  2  0
  9 10  1  0
 10 11  2  0
 11 12  1  0
 12 13  2  0
 13 14  1  0
  1 15  1  0
 15 16  2  0
 16 17  1  0
 17 18  2  0
 18 19  1  0
 19 20  1  0
 20 21  1  0
 21 22  1  0
 20 23  1  0
 23 24  1  0
 24 25  1  0
 25 26  1  0
 26 27  1  0
 13  4  1  0
 25 15  1  0
 12  7  1  0
 27 18  1  0
M  END
>  <AAScore>  (1) 
604.3264476634754

>  <RootName>  (1) 
./4ZLY/04_DeltaGEst/trajectory_00/rank_01/lead_0436

$$$$
