confid_9
     RDKit          3D

 27 30  0  0  0  0  0  0  0  0999 V2000
   25.3300   26.2600   34.7600 N   0  0  0  0  0  0  0  0  0  0  0  0
   26.1200   25.9200   33.6900 C   0  0  0  0  0  0  0  0  0  0  0  0
   25.6300   25.1100   32.9400 O   0  0  0  0  0  0  0  0  0  0  0  0
   27.5200   26.3800   33.4600 C   0  0  0  0  0  0  0  0  0  0  0  0
   28.1600   26.6300   34.6100 N   0  0  0  0  0  0  0  0  0  0  0  0
   29.4800   26.8500   34.5700 N   0  0  0  0  0  0  0  0  0  0  0  0
   30.1900   26.7800   33.4400 C   0  0  0  0  0  0  0  0  0  0  0  0
   31.5600   27.0500   33.5000 C   0  0  0  0  0  0  0  0  0  0  0  0
   32.2700   27.2400   32.3100 C   0  0  0  0  0  0  0  0  0  0  0  0
   31.6100   27.2500   31.0800 C   0  0  0  0  0  0  0  0  0  0  0  0
   30.2700   26.8700   31.0600 C   0  0  0  0  0  0  0  0  0  0  0  0
   29.5100   26.6900   32.2300 C   0  0  0  0  0  0  0  0  0  0  0  0
   28.1400   26.4100   32.2000 C   0  0  0  0  0  0  0  0  0  0  0  0
   27.4300   26.1300   31.0500 N   0  0  0  0  0  0  0  0  0  0  0  0
   27.5665   24.8093   30.4203 C   0  0  0  0  0  0  0  0  0  0  0  0
   26.5475   24.6187   29.2916 C   0  0  0  0  0  0  0  0  0  0  0  0
   26.5278   25.7916   28.4030 N   0  0  0  0  0  0  0  0  0  0  0  0
   26.2602   25.6291   26.9927 C   0  0  0  0  0  0  0  0  0  0  0  0
   25.3600   24.6446   26.5412 C   0  0  0  0  0  0  0  0  0  0  0  0
   25.0992   24.4935   25.1755 C   0  0  0  0  0  0  0  0  0  0  0  0
   24.2276   23.5434   24.7554 F   0  0  0  0  0  0  0  0  0  0  0  0
   25.7318   25.3232   24.2456 C   0  0  0  0  0  0  0  0  0  0  0  0
   25.4797   25.1775   22.9212 F   0  0  0  0  0  0  0  0  0  0  0  0
   26.6241   26.3055   24.6812 C   0  0  0  0  0  0  0  0  0  0  0  0
   26.8871   26.4606   26.0455 C   0  0  0  0  0  0  0  0  0  0  0  0
   26.6311   27.1486   28.9671 C   0  0  0  0  0  0  0  0  0  0  0  0
   26.5200   27.1358   30.4935 C   0  0  0  0  0  0  0  0  0  0  0  0
  1  2  1  0
  2  3  2  0
  2  4  1  0
  4  5  2  0
  5  6  1  0
  6  7  2  0
  7  8  1  0
  8  9  2  0
  9 10  1  0
 10 11  2  0
 11 12  1  0
 12 13  2  0
 13 14  1  0
 14 15  1  0
 15 16  1  0
 16 17  1  0
 17 18  1  0
 18 19  2  0
 19 20  1  0
 20 21  1  0
 20 22  2  0
 22 23  1  0
 22 24  1  0
 24 25  2  0
 17 26  1  0
 26 27  1  0
 13  4  1  0
 27 14  1  0
 12  7  1  0
 25 18  1  0
M  END
>  <AAScore>  (1) 
3.2512196843720624

>  <RootName>  (1) 
./4ZLY/04_DeltaGEst/trajectory_03/rank_01/lead_0011

$$$$
