confid_0
     RDKit          3D

 26 29  0  0  0  0  0  0  0  0999 V2000
   24.2000   26.2400   35.6900 N   0  0  0  0  0  0  0  0  0  0  0  0
   24.8500   26.2800   34.4800 C   0  0  0  0  0  0  0  0  0  0  0  0
   24.3100   25.7400   33.5400 O   0  0  0  0  0  0  0  0  0  0  0  0
   26.1800   26.9700   34.4700 C   0  0  0  0  0  0  0  0  0  0  0  0
   26.6500   27.6000   35.5500 N   0  0  0  0  0  0  0  0  0  0  0  0
   27.7900   28.2700   35.6200 N   0  0  0  0  0  0  0  0  0  0  0  0
   28.5400   28.3000   34.5100 C   0  0  0  0  0  0  0  0  0  0  0  0
   29.7700   28.9400   34.5600 C   0  0  0  0  0  0  0  0  0  0  0  0
   30.7000   28.8900   33.5000 C   0  0  0  0  0  0  0  0  0  0  0  0
   30.3700   28.1400   32.3700 C   0  0  0  0  0  0  0  0  0  0  0  0
   29.1200   27.5200   32.2800 C   0  0  0  0  0  0  0  0  0  0  0  0
   28.2100   27.6100   33.3300 C   0  0  0  0  0  0  0  0  0  0  0  0
   26.9700   26.9700   33.3100 C   0  0  0  0  0  0  0  0  0  0  0  0
   26.5300   26.2400   32.2200 N   0  0  0  0  0  0  0  0  0  0  0  0
   22.7741   26.1168   35.8409 C   0  0  0  0  0  0  0  0  0  0  0  0
   22.3231   25.4530   36.8652 N   0  0  0  0  0  0  0  0  0  0  0  0
   20.9820   25.1606   37.3080 C   0  0  0  0  0  0  0  0  0  0  0  0
   19.8489   25.8597   37.0699 C   0  0  0  0  0  0  0  0  0  0  0  0
   19.6394   27.0568   36.1621 C   0  0  2  0  0  0  0  0  0  0  0  0
   18.6449   26.7000   35.0337 C   0  0  0  0  0  0  0  0  0  0  0  0
   17.3008   26.1831   35.5680 C   0  0  0  0  0  0  0  0  0  0  0  0
   17.4769   24.9212   36.4180 C   0  0  0  0  0  0  0  0  0  0  0  0
   18.3752   25.3221   37.9503 S   0  0  0  0  0  0  0  0  0  0  0  0
   20.8982   27.6252   35.5790 C   0  0  0  0  0  0  0  0  0  0  0  0
   21.1575   28.8110   35.7248 O   0  0  0  0  0  0  0  0  0  0  0  0
   21.8514   26.7450   34.8469 C   0  0  0  0  0  0  0  0  0  0  0  0
  1  2  1  0
  2  3  2  0
  2  4  1  0
  4  5  2  0
  5  6  1  0
  6  7  2  0
  7  8  1  0
  8  9  2  0
  9 10  1  0
 10 11  2  0
 11 12  1  0
 12 13  2  0
 13 14  1  0
  1 15  1  0
 15 16  2  0
 16 17  1  0
 17 18  2  0
 18 19  1  0
 19 20  1  6
 20 21  1  0
 21 22  1  0
 22 23  1  0
 19 24  1  0
 24 25  2  0
 24 26  1  0
 13  4  1  0
 26 15  1  0
 12  7  1  0
 23 18  1  0
M  END
>  <AAScore>  (1) 
851.1510212516309

>  <RootName>  (1) 
./4ZLY/04_DeltaGEst/trajectory_04/rank_00/lead_0041

$$$$
