confid_7
     RDKit          3D

 30 33  0  0  0  0  0  0  0  0999 V2000
   24.6900   26.1200   35.5300 N   0  0  0  0  0  0  0  0  0  0  0  0
   25.6600   25.6700   34.6600 C   0  0  0  0  0  0  0  0  0  0  0  0
   25.2400   25.0100   33.7200 O   0  0  0  0  0  0  0  0  0  0  0  0
   27.0300   26.2200   34.8800 C   0  0  0  0  0  0  0  0  0  0  0  0
   27.3500   26.7300   36.0700 N   0  0  0  0  0  0  0  0  0  0  0  0
   28.5700   27.1800   36.3300 N   0  0  0  0  0  0  0  0  0  0  0  0
   29.5300   27.1100   35.3900 C   0  0  0  0  0  0  0  0  0  0  0  0
   30.8300   27.5700   35.6500 C   0  0  0  0  0  0  0  0  0  0  0  0
   31.8500   27.5400   34.6900 C   0  0  0  0  0  0  0  0  0  0  0  0
   31.5100   27.1200   33.4000 C   0  0  0  0  0  0  0  0  0  0  0  0
   30.2200   26.6300   33.1100 C   0  0  0  0  0  0  0  0  0  0  0  0
   29.2400   26.6600   34.1000 C   0  0  0  0  0  0  0  0  0  0  0  0
   27.9300   26.2600   33.8100 C   0  0  0  0  0  0  0  0  0  0  0  0
   27.5200   25.7100   32.6100 N   0  0  0  0  0  0  0  0  0  0  0  0
   31.1496   28.0831   36.9610 N   0  0  0  0  0  0  0  0  0  0  0  0
   31.1219   27.1660   38.1134 C   0  0  0  0  0  0  0  0  0  0  0  0
   30.6251   27.8356   39.4068 C   0  0  0  0  0  0  0  0  0  0  0  0
   29.3791   28.7235   39.2114 C   0  0  0  0  0  0  0  0  0  0  0  0
   29.5850   29.8129   38.2344 N   0  0  0  0  0  0  0  0  0  0  0  0
   30.9352   30.3474   38.0037 C   0  0  0  0  0  0  0  0  0  0  0  0
   31.7553   29.4217   37.0848 C   0  0  0  0  0  0  0  0  0  0  0  0
   28.5229   30.1992   37.3336 C   0  0  0  0  0  0  0  0  0  0  0  0
   28.8118   30.5860   36.1675 O   0  0  0  0  0  0  0  0  0  0  0  0
   27.0961   30.1398   37.7266 C   0  0  0  0  0  0  0  0  0  0  0  0
   26.6955   30.4432   39.0382 C   0  0  0  0  0  0  0  0  0  0  0  0
   25.3440   30.4047   39.3900 C   0  0  0  0  0  0  0  0  0  0  0  0
   24.3784   30.0773   38.4356 C   0  0  0  0  0  0  0  0  0  0  0  0
   24.7589   29.7842   37.1186 C   0  0  0  0  0  0  0  0  0  0  0  0
   23.7106   29.4855   36.0877 C   0  0  0  0  0  0  0  0  0  0  0  0
   26.1171   29.8293   36.7658 C   0  0  0  0  0  0  0  0  0  0  0  0
  1  2  1  0
  2  3  2  0
  2  4  1  0
  4  5  2  0
  5  6  1  0
  6  7  2  0
  7  8  1  0
  8  9  2  0
  9 10  1  0
 10 11  2  0
 11 12  1  0
 12 13  2  0
 13 14  1  0
  8 15  1  0
 15 16  1  0
 16 17  1  0
 17 18  1  0
 18 19  1  0
 19 20  1  0
 20 21  1  0
 19 22  1  0
 22 23  2  0
 22 24  1  0
 24 25  2  0
 25 26  1  0
 26 27  2  0
 27 28  1  0
 28 29  1  0
 28 30  2  0
 13  4  1  0
 21 15  1  0
 30 24  1  0
 12  7  1  0
M  END
>  <AAScore>  (1) 
41.61939984507124

>  <RootName>  (1) 
./4ZLY/04_DeltaGEst/trajectory_02/rank_01/lead_0400

$$$$
