confid_10
     RDKit          3D

 28 31  0  0  0  0  0  0  0  0999 V2000
   25.3300   26.2600   34.7600 N   0  0  0  0  0  0  0  0  0  0  0  0
   26.1200   25.9200   33.6900 C   0  0  0  0  0  0  0  0  0  0  0  0
   25.6300   25.1100   32.9400 O   0  0  0  0  0  0  0  0  0  0  0  0
   27.5200   26.3800   33.4600 C   0  0  0  0  0  0  0  0  0  0  0  0
   28.1600   26.6300   34.6100 N   0  0  0  0  0  0  0  0  0  0  0  0
   29.4800   26.8500   34.5700 N   0  0  0  0  0  0  0  0  0  0  0  0
   30.1900   26.7800   33.4400 C   0  0  0  0  0  0  0  0  0  0  0  0
   31.5600   27.0500   33.5000 C   0  0  0  0  0  0  0  0  0  0  0  0
   32.2700   27.2400   32.3100 C   0  0  0  0  0  0  0  0  0  0  0  0
   31.6100   27.2500   31.0800 C   0  0  0  0  0  0  0  0  0  0  0  0
   30.2700   26.8700   31.0600 C   0  0  0  0  0  0  0  0  0  0  0  0
   29.5100   26.6900   32.2300 C   0  0  0  0  0  0  0  0  0  0  0  0
   28.1400   26.4100   32.2000 C   0  0  0  0  0  0  0  0  0  0  0  0
   27.4300   26.1300   31.0500 N   0  0  0  0  0  0  0  0  0  0  0  0
   26.4613   27.1079   30.5412 C   0  0  0  0  0  0  0  0  0  0  0  0
   27.0499   27.8884   29.3635 C   0  0  0  0  0  0  0  0  0  0  0  0
   27.4025   27.0514   28.2013 N   0  0  0  0  0  0  0  0  0  0  0  0
   28.0367   27.6945   27.0803 C   0  0  0  0  0  0  0  0  0  0  0  0
   27.4195   27.6871   25.8183 C   0  0  0  0  0  0  0  0  0  0  0  0
   28.0326   28.3163   24.7255 C   0  0  0  0  0  0  0  0  0  0  0  0
   27.4253   28.3127   23.4718 O   0  0  0  0  0  0  0  0  0  0  0  0
   29.2648   28.9558   24.8934 C   0  0  0  0  0  0  0  0  0  0  0  0
   29.8833   28.9699   26.1467 C   0  0  0  0  0  0  0  0  0  0  0  0
   29.2724   28.3438   27.2371 C   0  0  0  0  0  0  0  0  0  0  0  0
   31.0789   29.5897   26.3046 F   0  0  0  0  0  0  0  0  0  0  0  0
   27.0507   25.6238   28.0986 C   0  0  0  0  0  0  0  0  0  0  0  0
   27.9264   24.7664   29.0194 C   0  0  0  0  0  0  0  0  0  0  0  0
   27.4642   24.7750   30.4817 C   0  0  0  0  0  0  0  0  0  0  0  0
  1  2  1  0
  2  3  2  0
  2  4  1  0
  4  5  2  0
  5  6  1  0
  6  7  2  0
  7  8  1  0
  8  9  2  0
  9 10  1  0
 10 11  2  0
 11 12  1  0
 12 13  2  0
 13 14  1  0
 14 15  1  0
 15 16  1  0
 16 17  1  0
 17 18  1  0
 18 19  2  0
 19 20  1  0
 20 21  1  0
 20 22  2  0
 22 23  1  0
 23 24  2  0
 23 25  1  0
 17 26  1  0
 26 27  1  0
 27 28  1  0
 13  4  1  0
 28 14  1  0
 12  7  1  0
 24 18  1  0
M  END
>  <AAScore>  (1) 
1.1565574537851782

>  <RootName>  (1) 
./4ZLY/04_DeltaGEst/trajectory_03/rank_01/lead_0303

$$$$
