confid_12
     RDKit          3D

 30 33  0  0  0  0  0  0  0  0999 V2000
   24.4800   26.1000   36.1300 N   0  0  0  0  0  0  0  0  0  0  0  0
   25.2500   26.2500   34.9900 C   0  0  0  0  0  0  0  0  0  0  0  0
   24.7400   25.7600   33.9900 O   0  0  0  0  0  0  0  0  0  0  0  0
   26.5900   26.8900   34.9600 C   0  0  0  0  0  0  0  0  0  0  0  0
   27.0600   27.2400   36.1600 N   0  0  0  0  0  0  0  0  0  0  0  0
   28.3000   27.7100   36.2400 N   0  0  0  0  0  0  0  0  0  0  0  0
   29.0500   27.9600   35.1500 C   0  0  0  0  0  0  0  0  0  0  0  0
   30.3400   28.4900   35.2600 C   0  0  0  0  0  0  0  0  0  0  0  0
   31.1100   28.8200   34.1400 C   0  0  0  0  0  0  0  0  0  0  0  0
   30.5200   28.6700   32.8800 C   0  0  0  0  0  0  0  0  0  0  0  0
   29.2900   28.0200   32.7700 C   0  0  0  0  0  0  0  0  0  0  0  0
   28.5200   27.7100   33.8900 C   0  0  0  0  0  0  0  0  0  0  0  0
   27.2700   27.0800   33.7600 C   0  0  0  0  0  0  0  0  0  0  0  0
   26.7500   26.8800   32.4900 N   0  0  0  0  0  0  0  0  0  0  0  0
   23.1402   25.5913   36.1364 C   0  0  0  0  0  0  0  0  0  0  0  0
   22.9660   24.3713   36.5617 N   0  0  0  0  0  0  0  0  0  0  0  0
   21.8112   23.5268   36.6910 C   0  0  0  0  0  0  0  0  0  0  0  0
   20.6087   23.7649   36.1807 C   0  0  0  0  0  0  0  0  0  0  0  0
   19.2814   23.0712   36.2633 C   0  0  0  0  0  0  0  0  0  0  0  0
   18.6065   23.9811   35.4640 O   0  0  0  0  0  0  0  0  0  0  0  0
   19.7916   24.7008   35.3175 C   0  0  2  0  0  0  0  0  0  0  0  0
   20.2285   24.6799   33.8226 C   0  0  0  0  0  0  0  0  0  0  0  0
   19.1409   25.1891   32.8617 C   0  0  0  0  0  0  0  0  0  0  0  0
   19.6132   25.1257   31.4114 C   0  0  0  0  0  0  0  0  0  0  0  0
   19.6048   26.0492   35.9085 N   0  0  0  0  0  0  0  0  0  0  0  0
   20.7733   26.7774   36.4702 C   0  0  0  0  0  0  0  0  0  0  0  0
   20.4849   28.3014   36.3940 C   0  0  0  0  0  0  0  0  0  0  0  0
   20.9119   26.4648   37.9809 C   0  0  0  0  0  0  0  0  0  0  0  0
   22.0614   26.5052   35.6919 C   0  0  0  0  0  0  0  0  0  0  0  0
   22.2761   27.1726   34.6426 O   0  0  0  0  0  0  0  0  0  0  0  0
  1  2  1  0
  2  3  2  0
  2  4  1  0
  4  5  2  0
  5  6  1  0
  6  7  2  0
  7  8  1  0
  8  9  2  0
  9 10  1  0
 10 11  2  0
 11 12  1  0
 12 13  2  0
 13 14  1  0
  1 15  1  0
 15 16  2  0
 16 17  1  0
 17 18  2  0
 18 19  1  0
 19 20  1  0
 20 21  1  0
 21 22  1  6
 22 23  1  0
 23 24  1  0
 21 25  1  0
 25 26  1  0
 26 27  1  0
 26 28  1  0
 26 29  1  0
 29 30  2  0
 13  4  1  0
 29 15  1  0
 12  7  1  0
 21 18  1  0
M  END
>  <AAScore>  (1) 
7767.370668839514

>  <RootName>  (1) 
./4ZLY/04_DeltaGEst/trajectory_00/rank_01/lead_0495

$$$$
