confid_5
     RDKit          3D

 26 29  0  0  0  0  0  0  0  0999 V2000
   24.5500   26.3900   36.2500 N   0  0  0  0  0  0  0  0  0  0  0  0
   25.6000   26.1300   35.4000 C   0  0  0  0  0  0  0  0  0  0  0  0
   25.4300   25.4300   34.4200 O   0  0  0  0  0  0  0  0  0  0  0  0
   26.9800   26.6300   35.7100 C   0  0  0  0  0  0  0  0  0  0  0  0
   27.3200   26.8200   36.9800 N   0  0  0  0  0  0  0  0  0  0  0  0
   28.4700   27.4000   37.3100 N   0  0  0  0  0  0  0  0  0  0  0  0
   29.4000   27.6300   36.3700 C   0  0  0  0  0  0  0  0  0  0  0  0
   30.6600   28.0500   36.8000 C   0  0  0  0  0  0  0  0  0  0  0  0
   31.5700   28.3600   35.7800 C   0  0  0  0  0  0  0  0  0  0  0  0
   31.3700   28.1000   34.4300 C   0  0  0  0  0  0  0  0  0  0  0  0
   30.1200   27.5900   34.0500 C   0  0  0  0  0  0  0  0  0  0  0  0
   29.1500   27.3400   35.0300 C   0  0  0  0  0  0  0  0  0  0  0  0
   27.8800   26.8900   34.6600 C   0  0  0  0  0  0  0  0  0  0  0  0
   27.4800   26.6100   33.3700 N   0  0  0  0  0  0  0  0  0  0  0  0
   23.2106   25.8932   36.0788 C   0  0  0  0  0  0  0  0  0  0  0  0
   22.8471   25.0879   35.0414 N   0  0  0  0  0  0  0  0  0  0  0  0
   21.5413   24.7411   35.0906 C   0  0  0  0  0  0  0  0  0  0  0  0
   20.9005   23.9181   34.0440 C   0  0  0  0  0  0  0  0  0  0  0  0
   21.5167   23.7651   32.9545 O   0  0  0  0  0  0  0  0  0  0  0  0
   19.6156   23.2863   34.2153 N   0  0  0  0  0  0  0  0  0  0  0  0
   18.9139   22.6577   33.1073 C   0  0  0  0  0  0  0  0  0  0  0  0
   17.6546   22.0486   33.7066 C   0  0  0  0  0  0  0  0  0  0  0  0
   17.9234   21.9478   35.2034 C   0  0  0  0  0  0  0  0  0  0  0  0
   18.9941   22.9894   35.4968 C   0  0  0  0  0  0  0  0  0  0  0  0
   20.7904   25.4538   36.4194 S   0  0  0  0  0  0  0  0  0  0  0  0
   22.1868   26.2103   36.9662 C   0  0  0  0  0  0  0  0  0  0  0  0
  1  2  1  0
  2  3  2  0
  2  4  1  0
  4  5  2  0
  5  6  1  0
  6  7  2  0
  7  8  1  0
  8  9  2  0
  9 10  1  0
 10 11  2  0
 11 12  1  0
 12 13  2  0
 13 14  1  0
  1 15  1  0
 15 16  1  0
 16 17  2  0
 17 18  1  0
 18 19  2  0
 18 20  1  0
 20 21  1  0
 21 22  1  0
 22 23  1  0
 23 24  1  0
 17 25  1  0
 25 26  1  0
 13  4  1  0
 26 15  2  0
 12  7  1  0
 24 20  1  0
M  END
>  <AAScore>  (1) 
656.3779246911918

>  <RootName>  (1) 
./4ZLY/04_DeltaGEst/trajectory_01/rank_00/lead_0354

$$$$
