confid_0
     RDKit          3D

 28 31  0  0  0  0  0  0  0  0999 V2000
   24.5500   26.3900   36.2500 N   0  0  0  0  0  0  0  0  0  0  0  0
   25.6000   26.1300   35.4000 C   0  0  0  0  0  0  0  0  0  0  0  0
   25.4300   25.4300   34.4200 O   0  0  0  0  0  0  0  0  0  0  0  0
   26.9800   26.6300   35.7100 C   0  0  0  0  0  0  0  0  0  0  0  0
   27.3200   26.8200   36.9800 N   0  0  0  0  0  0  0  0  0  0  0  0
   28.4700   27.4000   37.3100 N   0  0  0  0  0  0  0  0  0  0  0  0
   29.4000   27.6300   36.3700 C   0  0  0  0  0  0  0  0  0  0  0  0
   30.6600   28.0500   36.8000 C   0  0  0  0  0  0  0  0  0  0  0  0
   31.5700   28.3600   35.7800 C   0  0  0  0  0  0  0  0  0  0  0  0
   31.3700   28.1000   34.4300 C   0  0  0  0  0  0  0  0  0  0  0  0
   30.1200   27.5900   34.0500 C   0  0  0  0  0  0  0  0  0  0  0  0
   29.1500   27.3400   35.0300 C   0  0  0  0  0  0  0  0  0  0  0  0
   27.8800   26.8900   34.6600 C   0  0  0  0  0  0  0  0  0  0  0  0
   27.4800   26.6100   33.3700 N   0  0  0  0  0  0  0  0  0  0  0  0
   23.1646   26.1830   35.9234 C   0  0  0  0  0  0  0  0  0  0  0  0
   22.2894   25.8636   36.9256 N   0  0  0  0  0  0  0  0  0  0  0  0
   20.9576   25.6758   36.6999 C   0  0  0  0  0  0  0  0  0  0  0  0
   20.4620   25.8264   35.4026 C   0  0  0  0  0  0  0  0  0  0  0  0
   19.0342   25.6902   34.9265 C   0  0  1  0  0  0  0  0  0  0  0  0
   18.1137   26.6954   35.6551 C   0  0  0  0  0  0  0  0  0  0  0  0
   18.6121   28.0108   35.5051 O   0  0  0  0  0  0  0  0  0  0  0  0
   17.7543   28.9152   36.1634 C   0  0  0  0  0  0  0  0  0  0  0  0
   19.1247   26.0055   33.3939 C   0  0  0  0  0  0  0  0  0  0  0  0
   20.5709   26.2952   33.1623 C   0  0  0  0  0  0  0  0  0  0  0  0
   21.0678   26.6102   32.0490 O   0  0  0  0  0  0  0  0  0  0  0  0
   21.3170   26.1674   34.3884 C   0  0  0  0  0  0  0  0  0  0  0  0
   22.6785   26.3627   34.6101 C   0  0  0  0  0  0  0  0  0  0  0  0
   18.5382   24.2506   35.1567 C   0  0  0  0  0  0  0  0  0  0  0  0
  1  2  1  0
  2  3  2  0
  2  4  1  0
  4  5  2  0
  5  6  1  0
  6  7  2  0
  7  8  1  0
  8  9  2  0
  9 10  1  0
 10 11  2  0
 11 12  1  0
 12 13  2  0
 13 14  1  0
  1 15  1  0
 15 16  2  0
 16 17  1  0
 17 18  2  0
 18 19  1  0
 19 20  1  0
 20 21  1  0
 21 22  1  0
 19 23  1  0
 23 24  1  0
 24 25  2  0
 24 26  1  0
 26 27  2  0
 19 28  1  6
 13  4  1  0
 27 15  1  0
 12  7  1  0
 26 18  1  0
M  END
>  <AAScore>  (1) 
11137.075089188518

>  <RootName>  (1) 
./4ZLY/04_DeltaGEst/trajectory_01/rank_00/lead_0351

$$$$
