confid_16
     RDKit          3D

 28 32  0  0  0  0  0  0  0  0999 V2000
   24.2000   26.2400   35.6900 N   0  0  0  0  0  0  0  0  0  0  0  0
   24.8500   26.2800   34.4800 C   0  0  0  0  0  0  0  0  0  0  0  0
   24.3100   25.7400   33.5400 O   0  0  0  0  0  0  0  0  0  0  0  0
   26.1800   26.9700   34.4700 C   0  0  0  0  0  0  0  0  0  0  0  0
   26.6500   27.6000   35.5500 N   0  0  0  0  0  0  0  0  0  0  0  0
   27.7900   28.2700   35.6200 N   0  0  0  0  0  0  0  0  0  0  0  0
   28.5400   28.3000   34.5100 C   0  0  0  0  0  0  0  0  0  0  0  0
   29.7700   28.9400   34.5600 C   0  0  0  0  0  0  0  0  0  0  0  0
   30.7000   28.8900   33.5000 C   0  0  0  0  0  0  0  0  0  0  0  0
   30.3700   28.1400   32.3700 C   0  0  0  0  0  0  0  0  0  0  0  0
   29.1200   27.5200   32.2800 C   0  0  0  0  0  0  0  0  0  0  0  0
   28.2100   27.6100   33.3300 C   0  0  0  0  0  0  0  0  0  0  0  0
   26.9700   26.9700   33.3100 C   0  0  0  0  0  0  0  0  0  0  0  0
   26.5300   26.2400   32.2200 N   0  0  0  0  0  0  0  0  0  0  0  0
   23.8943   25.0010   36.3497 C   0  0  0  0  0  0  0  0  0  0  0  0
   24.4052   23.8740   35.9094 N   0  0  0  0  0  0  0  0  0  0  0  0
   24.0891   22.5662   36.4166 C   0  0  0  0  0  0  0  0  0  0  0  0
   22.8387   22.1092   36.3429 C   0  0  0  0  0  0  0  0  0  0  0  0
   21.9825   21.0079   36.8863 C   0  0  0  0  0  0  0  0  0  0  0  0
   20.7840   21.5213   36.3809 O   0  0  0  0  0  0  0  0  0  0  0  0
   21.5101   22.5580   35.7966 C   0  0  1  0  0  0  0  0  0  0  0  0
   21.0585   23.9509   36.2735 C   0  0  0  0  0  0  0  0  0  0  0  0
   21.7247   24.4289   37.5503 C   0  0  0  0  0  0  0  0  0  0  0  0
   23.0043   25.0353   37.5422 C   0  0  0  0  0  0  0  0  0  0  0  0
   23.4514   25.6625   38.7160 C   0  0  0  0  0  0  0  0  0  0  0  0
   22.6974   25.6334   39.8525 N   0  0  0  0  0  0  0  0  0  0  0  0
   21.5302   24.9479   39.9062 C   0  0  0  0  0  0  0  0  0  0  0  0
   21.0183   24.3376   38.7578 C   0  0  0  0  0  0  0  0  0  0  0  0
  1  2  1  0
  2  3  2  0
  2  4  1  0
  4  5  2  0
  5  6  1  0
  6  7  2  0
  7  8  1  0
  8  9  2  0
  9 10  1  0
 10 11  2  0
 11 12  1  0
 12 13  2  0
 13 14  1  0
  1 15  1  0
 15 16  2  0
 16 17  1  0
 17 18  2  0
 18 19  1  0
 19 20  1  0
 20 21  1  0
 21 22  1  1
 22 23  1  0
 23 24  2  0
 24 25  1  0
 25 26  2  0
 26 27  1  0
 27 28  2  0
 13  4  1  0
 24 15  1  0
 12  7  1  0
 21 18  1  0
 28 23  1  0
M  END
>  <AAScore>  (1) 
3564.9561024667514

>  <RootName>  (1) 
./4ZLY/04_DeltaGEst/trajectory_04/rank_00/lead_0068

$$$$
