confid_5
     RDKit          3D

 27 32  0  0  0  0  0  0  0  0999 V2000
   24.4800   26.1000   36.1300 N   0  0  0  0  0  0  0  0  0  0  0  0
   25.2500   26.2500   34.9900 C   0  0  0  0  0  0  0  0  0  0  0  0
   24.7400   25.7600   33.9900 O   0  0  0  0  0  0  0  0  0  0  0  0
   26.5900   26.8900   34.9600 C   0  0  0  0  0  0  0  0  0  0  0  0
   27.0600   27.2400   36.1600 N   0  0  0  0  0  0  0  0  0  0  0  0
   28.3000   27.7100   36.2400 N   0  0  0  0  0  0  0  0  0  0  0  0
   29.0500   27.9600   35.1500 C   0  0  0  0  0  0  0  0  0  0  0  0
   30.3400   28.4900   35.2600 C   0  0  0  0  0  0  0  0  0  0  0  0
   31.1100   28.8200   34.1400 C   0  0  0  0  0  0  0  0  0  0  0  0
   30.5200   28.6700   32.8800 C   0  0  0  0  0  0  0  0  0  0  0  0
   29.2900   28.0200   32.7700 C   0  0  0  0  0  0  0  0  0  0  0  0
   28.5200   27.7100   33.8900 C   0  0  0  0  0  0  0  0  0  0  0  0
   27.2700   27.0800   33.7600 C   0  0  0  0  0  0  0  0  0  0  0  0
   26.7500   26.8800   32.4900 N   0  0  0  0  0  0  0  0  0  0  0  0
   23.0417   26.0975   36.1503 C   0  0  0  0  0  0  0  0  0  0  0  0
   22.4418   25.4304   37.0976 N   0  0  0  0  0  0  0  0  0  0  0  0
   21.0509   25.1954   37.4140 C   0  0  0  0  0  0  0  0  0  0  0  0
   20.0099   26.0134   37.1925 C   0  0  0  0  0  0  0  0  0  0  0  0
   18.5595   25.9758   37.5916 C   0  0  0  0  0  0  0  0  0  0  0  0
   18.2246   27.2014   37.0283 O   0  0  0  0  0  0  0  0  0  0  0  0
   19.5401   27.3291   36.6005 C   0  0  2  0  0  0  0  0  0  0  0  0
   19.6031   27.3699   35.0708 C   0  0  0  0  0  0  0  0  0  0  0  0
   21.0307   27.3201   34.7164 C   0  0  0  0  0  0  0  0  0  0  0  0
   22.2951   26.8433   35.1336 C   0  0  0  0  0  0  0  0  0  0  0  0
   22.1880   27.6354   33.9547 C   0  0  0  0  0  0  0  0  0  0  0  0
   23.2659   28.7039   34.3055 C   0  0  0  0  0  0  0  0  0  0  0  0
   21.9580   29.1721   33.8443 C   0  0  0  0  0  0  0  0  0  0  0  0
  1  2  1  0
  2  3  2  0
  2  4  1  0
  4  5  2  0
  5  6  1  0
  6  7  2  0
  7  8  1  0
  8  9  2  0
  9 10  1  0
 10 11  2  0
 11 12  1  0
 12 13  2  0
 13 14  1  0
  1 15  1  0
 15 16  2  0
 16 17  1  0
 17 18  2  0
 18 19  1  0
 19 20  1  0
 20 21  1  0
 21 22  1  6
 22 23  1  0
 23 24  2  0
 24 25  1  0
 25 26  1  0
 26 27  1  0
 13  4  1  0
 24 15  1  0
 27 25  1  0
 12  7  1  0
 21 18  1  0
 25 23  1  0
M  END
>  <AAScore>  (1) 
367.18153951068336

>  <RootName>  (1) 
./4ZLY/04_DeltaGEst/trajectory_00/rank_01/lead_0408

$$$$
