confid_14
     RDKit          3D

 28 31  0  0  0  0  0  0  0  0999 V2000
   24.2000   26.2400   35.6900 N   0  0  0  0  0  0  0  0  0  0  0  0
   24.8500   26.2800   34.4800 C   0  0  0  0  0  0  0  0  0  0  0  0
   24.3100   25.7400   33.5400 O   0  0  0  0  0  0  0  0  0  0  0  0
   26.1800   26.9700   34.4700 C   0  0  0  0  0  0  0  0  0  0  0  0
   26.6500   27.6000   35.5500 N   0  0  0  0  0  0  0  0  0  0  0  0
   27.7900   28.2700   35.6200 N   0  0  0  0  0  0  0  0  0  0  0  0
   28.5400   28.3000   34.5100 C   0  0  0  0  0  0  0  0  0  0  0  0
   29.7700   28.9400   34.5600 C   0  0  0  0  0  0  0  0  0  0  0  0
   30.7000   28.8900   33.5000 C   0  0  0  0  0  0  0  0  0  0  0  0
   30.3700   28.1400   32.3700 C   0  0  0  0  0  0  0  0  0  0  0  0
   29.1200   27.5200   32.2800 C   0  0  0  0  0  0  0  0  0  0  0  0
   28.2100   27.6100   33.3300 C   0  0  0  0  0  0  0  0  0  0  0  0
   26.9700   26.9700   33.3100 C   0  0  0  0  0  0  0  0  0  0  0  0
   26.5300   26.2400   32.2200 N   0  0  0  0  0  0  0  0  0  0  0  0
   23.1363   25.3199   35.9780 C   0  0  0  0  0  0  0  0  0  0  0  0
   21.9540   25.7283   36.4850 N   0  0  0  0  0  0  0  0  0  0  0  0
   21.2315   24.5964   36.5915 C   0  0  0  0  0  0  0  0  0  0  0  0
   21.9903   23.5264   36.1681 C   0  0  0  0  0  0  0  0  0  0  0  0
   21.5108   22.1101   36.0505 C   0  0  0  0  0  0  0  0  0  0  0  0
   21.0427   21.8637   34.6646 N   0  0  0  0  0  0  0  0  0  0  0  0
   19.6005   22.1376   34.5330 C   0  0  0  0  0  0  0  0  0  0  0  0
   21.4060   20.5391   34.0872 C   0  0  2  0  0  0  0  0  0  0  0  0
   21.2543   19.3601   35.0720 C   0  0  0  0  0  0  0  0  0  0  0  0
   22.8113   20.5840   33.4524 C   0  0  0  0  0  0  0  0  0  0  0  0
   23.7711   21.0831   34.3648 O   0  0  0  0  0  0  0  0  0  0  0  0
   24.1263   22.4259   34.0797 C   0  0  0  0  0  0  0  0  0  0  0  0
   24.3717   23.1769   35.3946 C   0  0  0  0  0  0  0  0  0  0  0  0
   23.2008   23.9805   35.7790 N   0  0  0  0  0  0  0  0  0  0  0  0
  1  2  1  0
  2  3  2  0
  2  4  1  0
  4  5  2  0
  5  6  1  0
  6  7  2  0
  7  8  1  0
  8  9  2  0
  9 10  1  0
 10 11  2  0
 11 12  1  0
 12 13  2  0
 13 14  1  0
  1 15  1  0
 15 16  2  0
 16 17  1  0
 17 18  2  0
 18 19  1  0
 19 20  1  0
 20 21  1  0
 20 22  1  0
 22 23  1  1
 22 24  1  0
 24 25  1  0
 25 26  1  0
 26 27  1  0
 27 28  1  0
 13  4  1  0
 28 15  1  0
 12  7  1  0
 28 18  1  0
M  END
>  <AAScore>  (1) 
1886.8626605772024

>  <RootName>  (1) 
./4ZLY/04_DeltaGEst/trajectory_04/rank_00/lead_0412

$$$$
