confid_11
     RDKit          3D

 30 34  0  0  0  0  0  0  0  0999 V2000
   24.5700   26.8800   35.5900 N   0  0  0  0  0  0  0  0  0  0  0  0
   25.5000   26.4000   34.6900 C   0  0  0  0  0  0  0  0  0  0  0  0
   25.1700   25.5200   33.9100 O   0  0  0  0  0  0  0  0  0  0  0  0
   26.8400   27.0200   34.7400 C   0  0  0  0  0  0  0  0  0  0  0  0
   27.3800   27.2800   35.9400 N   0  0  0  0  0  0  0  0  0  0  0  0
   28.6200   27.7400   36.0300 N   0  0  0  0  0  0  0  0  0  0  0  0
   29.3800   28.0000   34.9600 C   0  0  0  0  0  0  0  0  0  0  0  0
   30.6700   28.5000   35.1300 C   0  0  0  0  0  0  0  0  0  0  0  0
   31.5400   28.6100   34.0300 C   0  0  0  0  0  0  0  0  0  0  0  0
   31.0900   28.2200   32.7700 C   0  0  0  0  0  0  0  0  0  0  0  0
   29.8000   27.7000   32.6000 C   0  0  0  0  0  0  0  0  0  0  0  0
   28.9600   27.5500   33.7100 C   0  0  0  0  0  0  0  0  0  0  0  0
   27.6600   27.0300   33.5900 C   0  0  0  0  0  0  0  0  0  0  0  0
   27.1600   26.7400   32.3400 N   0  0  0  0  0  0  0  0  0  0  0  0
   23.3491   26.1992   35.9240 C   0  0  0  0  0  0  0  0  0  0  0  0
   22.2737   26.9001   36.1283 N   0  0  0  0  0  0  0  0  0  0  0  0
   21.0164   26.3225   36.5095 C   0  0  0  0  0  0  0  0  0  0  0  0
   20.8621   24.9935   36.6139 C   0  0  0  0  0  0  0  0  0  0  0  0
   21.9659   24.0399   36.2093 C   0  0  2  0  0  0  0  0  0  0  0  0
   21.9899   22.8626   37.1951 C   0  0  0  0  0  0  0  0  0  0  0  0
   20.6483   22.2694   37.3158 N   0  0  0  0  0  0  0  0  0  0  0  0
   20.5083   20.8182   37.4972 C   0  0  0  0  0  0  0  0  0  0  0  0
   19.6862   20.1974   36.3533 C   0  0  0  0  0  0  0  0  0  0  0  0
   18.6414   21.0386   35.8950 O   0  0  0  0  0  0  0  0  0  0  0  0
   17.7157   21.3192   36.9306 C   0  0  0  0  0  0  0  0  0  0  0  0
   18.1333   22.5451   37.7762 C   0  0  0  0  0  0  0  0  0  0  0  0
   19.4764   23.1228   37.3731 C   0  0  0  0  0  0  0  0  0  0  0  0
   19.5779   24.4268   37.0677 C   0  0  0  0  0  0  0  0  0  0  0  0
   23.3051   24.7324   36.1196 C   0  0  0  0  0  0  0  0  0  0  0  0
   24.3723   24.0622   36.1674 O   0  0  0  0  0  0  0  0  0  0  0  0
  1  2  1  0
  2  3  2  0
  2  4  1  0
  4  5  2  0
  5  6  1  0
  6  7  2  0
  7  8  1  0
  8  9  2  0
  9 10  1  0
 10 11  2  0
 11 12  1  0
 12 13  2  0
 13 14  1  0
  1 15  1  0
 15 16  2  0
 16 17  1  0
 17 18  2  0
 18 19  1  0
 19 20  1  1
 20 21  1  0
 21 22  1  0
 22 23  1  0
 23 24  1  0
 24 25  1  0
 25 26  1  0
 26 27  1  0
 27 28  2  0
 19 29  1  0
 29 30  2  0
 13  4  1  0
 29 15  1  0
 12  7  1  0
 28 18  1  0
 27 21  1  0
M  END
>  <AAScore>  (1) 
4099.17684243538

>  <RootName>  (1) 
./4ZLY/04_DeltaGEst/trajectory_05/rank_00/lead_0240

$$$$
