confid_6
     RDKit          3D

 28 31  0  0  0  0  0  0  0  0999 V2000
   25.3300   26.2600   34.7600 N   0  0  0  0  0  0  0  0  0  0  0  0
   26.1200   25.9200   33.6900 C   0  0  0  0  0  0  0  0  0  0  0  0
   25.6300   25.1100   32.9400 O   0  0  0  0  0  0  0  0  0  0  0  0
   27.5200   26.3800   33.4600 C   0  0  0  0  0  0  0  0  0  0  0  0
   28.1600   26.6300   34.6100 N   0  0  0  0  0  0  0  0  0  0  0  0
   29.4800   26.8500   34.5700 N   0  0  0  0  0  0  0  0  0  0  0  0
   30.1900   26.7800   33.4400 C   0  0  0  0  0  0  0  0  0  0  0  0
   31.5600   27.0500   33.5000 C   0  0  0  0  0  0  0  0  0  0  0  0
   32.2700   27.2400   32.3100 C   0  0  0  0  0  0  0  0  0  0  0  0
   31.6100   27.2500   31.0800 C   0  0  0  0  0  0  0  0  0  0  0  0
   30.2700   26.8700   31.0600 C   0  0  0  0  0  0  0  0  0  0  0  0
   29.5100   26.6900   32.2300 C   0  0  0  0  0  0  0  0  0  0  0  0
   28.1400   26.4100   32.2000 C   0  0  0  0  0  0  0  0  0  0  0  0
   27.4300   26.1300   31.0500 N   0  0  0  0  0  0  0  0  0  0  0  0
   26.4541   27.1109   30.5574 C   0  0  0  0  0  0  0  0  0  0  0  0
   26.2707   26.9957   29.0460 C   0  0  0  0  0  0  0  0  0  0  0  0
   27.5776   26.9068   28.3956 N   0  0  0  0  0  0  0  0  0  0  0  0
   28.2228   28.1512   27.9623 C   0  0  0  0  0  0  0  0  0  0  0  0
   28.2311   25.6265   28.2114 C   0  0  0  0  0  0  0  0  0  0  0  0
   28.9154   25.3745   27.0040 C   0  0  0  0  0  0  0  0  0  0  0  0
   28.8947   26.2747   25.9892 F   0  0  0  0  0  0  0  0  0  0  0  0
   29.5993   24.1799   26.8082 C   0  0  0  0  0  0  0  0  0  0  0  0
   29.6051   23.2034   27.7948 C   0  0  0  0  0  0  0  0  0  0  0  0
   28.9111   23.4004   29.0003 C   0  0  0  0  0  0  0  0  0  0  0  0
   28.8772   22.3981   29.9865 O   0  0  0  0  0  0  0  0  0  0  0  0
   29.5228   21.1328   29.8857 C   0  0  0  0  0  0  0  0  0  0  0  0
   28.2278   24.6218   29.2301 C   0  0  0  0  0  0  0  0  0  0  0  0
   27.4266   24.7599   30.5187 C   0  0  0  0  0  0  0  0  0  0  0  0
  1  2  1  0
  2  3  2  0
  2  4  1  0
  4  5  2  0
  5  6  1  0
  6  7  2  0
  7  8  1  0
  8  9  2  0
  9 10  1  0
 10 11  2  0
 11 12  1  0
 12 13  2  0
 13 14  1  0
 14 15  1  0
 15 16  1  0
 16 17  1  0
 17 18  1  0
 17 19  1  0
 19 20  2  0
 20 21  1  0
 20 22  1  0
 22 23  2  0
 23 24  1  0
 24 25  1  0
 25 26  1  0
 24 27  2  0
 27 28  1  0
 13  4  1  0
 28 14  1  0
 12  7  1  0
 27 19  1  0
M  END
>  <AAScore>  (1) 
19.59377883395063

>  <RootName>  (1) 
./4ZLY/04_DeltaGEst/trajectory_03/rank_01/lead_0472

$$$$
