confid_5
     RDKit          3D

 28 31  0  0  0  0  0  0  0  0999 V2000
   24.5700   26.8800   35.5900 N   0  0  0  0  0  0  0  0  0  0  0  0
   25.5000   26.4000   34.6900 C   0  0  0  0  0  0  0  0  0  0  0  0
   25.1700   25.5200   33.9100 O   0  0  0  0  0  0  0  0  0  0  0  0
   26.8400   27.0200   34.7400 C   0  0  0  0  0  0  0  0  0  0  0  0
   27.3800   27.2800   35.9400 N   0  0  0  0  0  0  0  0  0  0  0  0
   28.6200   27.7400   36.0300 N   0  0  0  0  0  0  0  0  0  0  0  0
   29.3800   28.0000   34.9600 C   0  0  0  0  0  0  0  0  0  0  0  0
   30.6700   28.5000   35.1300 C   0  0  0  0  0  0  0  0  0  0  0  0
   31.5400   28.6100   34.0300 C   0  0  0  0  0  0  0  0  0  0  0  0
   31.0900   28.2200   32.7700 C   0  0  0  0  0  0  0  0  0  0  0  0
   29.8000   27.7000   32.6000 C   0  0  0  0  0  0  0  0  0  0  0  0
   28.9600   27.5500   33.7100 C   0  0  0  0  0  0  0  0  0  0  0  0
   27.6600   27.0300   33.5900 C   0  0  0  0  0  0  0  0  0  0  0  0
   27.1600   26.7400   32.3400 N   0  0  0  0  0  0  0  0  0  0  0  0
   23.1532   26.6481   35.4989 C   0  0  0  0  0  0  0  0  0  0  0  0
   22.4305   26.5392   36.6419 N   0  0  0  0  0  0  0  0  0  0  0  0
   21.0875   26.3471   36.6348 C   0  0  0  0  0  0  0  0  0  0  0  0
   20.3743   26.2711   35.4257 C   0  0  0  0  0  0  0  0  0  0  0  0
   18.8844   25.9688   35.5153 C   0  0  0  0  0  0  0  0  0  0  0  0
   18.0259   26.6415   34.4342 C   0  0  0  0  0  0  0  0  0  0  0  0
   18.0147   25.8297   33.1316 C   0  0  0  0  0  0  0  0  0  0  0  0
   19.3695   25.3817   32.7799 N   0  0  0  0  0  0  0  0  0  0  0  0
   19.6615   24.0092   32.4318 C   0  0  0  0  0  0  0  0  0  0  0  0
   20.8540   23.5985   32.4516 O   0  0  0  0  0  0  0  0  0  0  0  0
   18.5798   23.0394   32.0628 C   0  0  0  0  0  0  0  0  0  0  0  0
   20.4575   26.3609   32.8407 C   0  0  0  0  0  0  0  0  0  0  0  0
   21.1068   26.3728   34.2077 C   0  0  0  0  0  0  0  0  0  0  0  0
   22.4930   26.5940   34.2635 C   0  0  0  0  0  0  0  0  0  0  0  0
  1  2  1  0
  2  3  2  0
  2  4  1  0
  4  5  2  0
  5  6  1  0
  6  7  2  0
  7  8  1  0
  8  9  2  0
  9 10  1  0
 10 11  2  0
 11 12  1  0
 12 13  2  0
 13 14  1  0
  1 15  1  0
 15 16  2  0
 16 17  1  0
 17 18  2  0
 18 19  1  0
 19 20  1  0
 20 21  1  0
 21 22  1  0
 22 23  1  0
 23 24  2  0
 23 25  1  0
 22 26  1  0
 26 27  1  0
 27 28  2  0
 13  4  1  0
 28 15  1  0
 12  7  1  0
 27 18  1  0
M  END
>  <AAScore>  (1) 
2188.0183200746383

>  <RootName>  (1) 
./4ZLY/04_DeltaGEst/trajectory_05/rank_00/lead_0078

$$$$
