confid_8
     RDKit          3D

 30 33  0  0  0  0  0  0  0  0999 V2000
   24.4800   26.1000   36.1300 N   0  0  0  0  0  0  0  0  0  0  0  0
   25.2500   26.2500   34.9900 C   0  0  0  0  0  0  0  0  0  0  0  0
   24.7400   25.7600   33.9900 O   0  0  0  0  0  0  0  0  0  0  0  0
   26.5900   26.8900   34.9600 C   0  0  0  0  0  0  0  0  0  0  0  0
   27.0600   27.2400   36.1600 N   0  0  0  0  0  0  0  0  0  0  0  0
   28.3000   27.7100   36.2400 N   0  0  0  0  0  0  0  0  0  0  0  0
   29.0500   27.9600   35.1500 C   0  0  0  0  0  0  0  0  0  0  0  0
   30.3400   28.4900   35.2600 C   0  0  0  0  0  0  0  0  0  0  0  0
   31.1100   28.8200   34.1400 C   0  0  0  0  0  0  0  0  0  0  0  0
   30.5200   28.6700   32.8800 C   0  0  0  0  0  0  0  0  0  0  0  0
   29.2900   28.0200   32.7700 C   0  0  0  0  0  0  0  0  0  0  0  0
   28.5200   27.7100   33.8900 C   0  0  0  0  0  0  0  0  0  0  0  0
   27.2700   27.0800   33.7600 C   0  0  0  0  0  0  0  0  0  0  0  0
   26.7500   26.8800   32.4900 N   0  0  0  0  0  0  0  0  0  0  0  0
   23.0461   25.9664   36.1581 C   0  0  0  0  0  0  0  0  0  0  0  0
   22.2939   26.1012   34.9357 N   0  0  0  0  0  0  0  0  0  0  0  0
   21.1062   26.6145   34.7909 C   0  0  0  0  0  0  0  0  0  0  0  0
   20.4860   26.5885   33.4828 N   0  0  0  0  0  0  0  0  0  0  0  0
   19.0455   26.8173   33.3210 C   0  0  0  0  0  0  0  0  0  0  0  0
   21.3045   26.2644   32.3073 C   0  0  0  0  0  0  0  0  0  0  0  0
   20.4085   27.2213   35.9785 C   0  0  0  0  0  0  0  0  0  0  0  0
   20.0681   26.1341   36.9479 C   0  0  0  0  0  0  0  0  0  0  0  0
   18.7274   25.8681   37.2679 C   0  0  0  0  0  0  0  0  0  0  0  0
   18.4079   24.8867   38.2078 C   0  0  0  0  0  0  0  0  0  0  0  0
   19.4168   24.1616   38.8478 C   0  0  0  0  0  0  0  0  0  0  0  0
   19.0448   23.1936   39.7929 O   0  0  0  0  0  0  0  0  0  0  0  0
   19.9635   22.3763   40.5121 C   0  0  0  0  0  0  0  0  0  0  0  0
   20.7617   24.4248   38.5258 C   0  0  0  0  0  0  0  0  0  0  0  0
   21.0930   25.3861   37.5616 C   0  0  0  0  0  0  0  0  0  0  0  0
   22.4850   25.6182   37.2849 N   0  0  0  0  0  0  0  0  0  0  0  0
  1  2  1  0
  2  3  2  0
  2  4  1  0
  4  5  2  0
  5  6  1  0
  6  7  2  0
  7  8  1  0
  8  9  2  0
  9 10  1  0
 10 11  2  0
 11 12  1  0
 12 13  2  0
 13 14  1  0
  1 15  1  0
 15 16  1  0
 16 17  2  0
 17 18  1  0
 18 19  1  0
 18 20  1  0
 17 21  1  0
 21 22  1  0
 22 23  2  0
 23 24  1  0
 24 25  2  0
 25 26  1  0
 26 27  1  0
 25 28  1  0
 28 29  2  0
 29 30  1  0
 13  4  1  0
 30 15  2  0
 12  7  1  0
 29 22  1  0
M  END
>  <AAScore>  (1) 
837.0249342343387

>  <RootName>  (1) 
./4ZLY/04_DeltaGEst/trajectory_00/rank_01/lead_0091

$$$$
