confid_7
     RDKit          3D

 32 35  0  0  0  0  0  0  0  0999 V2000
   24.5500   26.3900   36.2500 N   0  0  0  0  0  0  0  0  0  0  0  0
   25.6000   26.1300   35.4000 C   0  0  0  0  0  0  0  0  0  0  0  0
   25.4300   25.4300   34.4200 O   0  0  0  0  0  0  0  0  0  0  0  0
   26.9800   26.6300   35.7100 C   0  0  0  0  0  0  0  0  0  0  0  0
   27.3200   26.8200   36.9800 N   0  0  0  0  0  0  0  0  0  0  0  0
   28.4700   27.4000   37.3100 N   0  0  0  0  0  0  0  0  0  0  0  0
   29.4000   27.6300   36.3700 C   0  0  0  0  0  0  0  0  0  0  0  0
   30.6600   28.0500   36.8000 C   0  0  0  0  0  0  0  0  0  0  0  0
   31.5700   28.3600   35.7800 C   0  0  0  0  0  0  0  0  0  0  0  0
   31.3700   28.1000   34.4300 C   0  0  0  0  0  0  0  0  0  0  0  0
   30.1200   27.5900   34.0500 C   0  0  0  0  0  0  0  0  0  0  0  0
   29.1500   27.3400   35.0300 C   0  0  0  0  0  0  0  0  0  0  0  0
   27.8800   26.8900   34.6600 C   0  0  0  0  0  0  0  0  0  0  0  0
   27.4800   26.6100   33.3700 N   0  0  0  0  0  0  0  0  0  0  0  0
   23.1716   26.5106   35.7619 C   0  0  0  0  0  0  0  0  0  0  0  0
   22.8980   27.9671   35.3223 C   0  0  0  0  0  0  0  0  0  0  0  0
   21.4617   28.4250   35.6389 C   0  0  0  0  0  0  0  0  0  0  0  0
   20.4674   27.3430   35.4559 N   0  0  0  0  0  0  0  0  0  0  0  0
   20.2706   26.9393   34.0396 C   0  0  0  0  0  0  0  0  0  0  0  0
   19.6113   28.0458   33.1829 C   0  0  1  0  0  0  0  0  0  0  0  0
   19.3757   27.5333   31.7471 C   0  0  0  0  0  0  0  0  0  0  0  0
   18.7189   28.6121   30.8759 C   0  0  0  0  0  0  0  0  0  0  0  0
   17.3909   29.0822   31.4919 C   0  0  2  0  0  0  0  0  0  0  0  0
   16.7660   30.1503   30.6153 C   0  0  0  0  0  0  0  0  0  0  0  0
   17.1746   31.3358   30.7284 O   0  0  0  0  0  0  0  0  0  0  0  0
   15.7752   29.8396   29.6088 N   0  0  0  0  0  0  0  0  0  0  0  0
   15.2534   30.9259   28.7726 C   0  0  0  0  0  0  0  0  0  0  0  0
   15.3002   28.4657   29.3985 C   0  0  0  0  0  0  0  0  0  0  0  0
   17.6200   29.5988   32.9273 C   0  0  0  0  0  0  0  0  0  0  0  0
   18.2808   28.5250   33.8026 C   0  0  0  0  0  0  0  0  0  0  0  0
   20.7242   26.1789   36.3498 C   0  0  0  0  0  0  0  0  0  0  0  0
   22.1839   26.0671   36.8475 C   0  0  0  0  0  0  0  0  0  0  0  0
  1  2  1  0
  2  3  2  0
  2  4  1  0
  4  5  2  0
  5  6  1  0
  6  7  2  0
  7  8  1  0
  8  9  2  0
  9 10  1  0
 10 11  2  0
 11 12  1  0
 12 13  2  0
 13 14  1  0
  1 15  1  0
 15 16  1  0
 16 17  1  0
 17 18  1  0
 18 19  1  0
 20 19  1  1
 20 21  1  0
 21 22  1  0
 22 23  1  0
 23 24  1  6
 24 25  2  0
 24 26  1  0
 26 27  1  0
 26 28  1  0
 23 29  1  0
 29 30  1  0
 18 31  1  0
 31 32  1  0
 13  4  1  0
 32 15  1  0
 12  7  1  0
 30 20  1  0
M  END
>  <AAScore>  (1) 
793.187866815721

>  <RootName>  (1) 
./4ZLY/04_DeltaGEst/trajectory_01/rank_00/lead_0091

$$$$
