confid_15
     RDKit          3D

 28 31  0  0  0  0  0  0  0  0999 V2000
   24.6900   26.1200   35.5300 N   0  0  0  0  0  0  0  0  0  0  0  0
   25.6600   25.6700   34.6600 C   0  0  0  0  0  0  0  0  0  0  0  0
   25.2400   25.0100   33.7200 O   0  0  0  0  0  0  0  0  0  0  0  0
   27.0300   26.2200   34.8800 C   0  0  0  0  0  0  0  0  0  0  0  0
   27.3500   26.7300   36.0700 N   0  0  0  0  0  0  0  0  0  0  0  0
   28.5700   27.1800   36.3300 N   0  0  0  0  0  0  0  0  0  0  0  0
   29.5300   27.1100   35.3900 C   0  0  0  0  0  0  0  0  0  0  0  0
   30.8300   27.5700   35.6500 C   0  0  0  0  0  0  0  0  0  0  0  0
   31.8500   27.5400   34.6900 C   0  0  0  0  0  0  0  0  0  0  0  0
   31.5100   27.1200   33.4000 C   0  0  0  0  0  0  0  0  0  0  0  0
   30.2200   26.6300   33.1100 C   0  0  0  0  0  0  0  0  0  0  0  0
   29.2400   26.6600   34.1000 C   0  0  0  0  0  0  0  0  0  0  0  0
   27.9300   26.2600   33.8100 C   0  0  0  0  0  0  0  0  0  0  0  0
   27.5200   25.7100   32.6100 N   0  0  0  0  0  0  0  0  0  0  0  0
   31.1737   28.0613   37.0039 C   0  0  0  0  0  0  0  0  0  0  0  0
   31.0116   27.3460   38.1789 C   0  0  0  0  0  0  0  0  0  0  0  0
   31.4280   28.1837   39.1925 C   0  0  0  0  0  0  0  0  0  0  0  0
   31.5006   27.8472   40.6468 C   0  0  0  0  0  0  0  0  0  0  0  0
   31.4710   29.0684   41.4656 N   0  0  0  0  0  0  0  0  0  0  0  0
   31.9690   30.3227   40.9436 C   0  0  0  0  0  0  0  0  0  0  0  0
   32.0811   31.3261   41.6991 O   0  0  0  0  0  0  0  0  0  0  0  0
   32.3961   30.4494   39.5061 C   0  0  0  0  0  0  0  0  0  0  0  0
   31.8334   29.3666   38.6986 N   0  0  0  0  0  0  0  0  0  0  0  0
   31.6915   29.3070   37.3541 C   0  0  0  0  0  0  0  0  0  0  0  0
   31.9954   30.4411   36.4076 C   0  0  0  0  0  0  0  0  0  0  0  0
   33.4984   30.6302   36.2226 C   0  0  0  0  0  0  0  0  0  0  0  0
   31.0688   28.9630   42.8740 C   0  0  0  0  0  0  0  0  0  0  0  0
   29.6882   29.5763   43.0811 C   0  0  0  0  0  0  0  0  0  0  0  0
  1  2  1  0
  2  3  2  0
  2  4  1  0
  4  5  2  0
  5  6  1  0
  6  7  2  0
  7  8  1  0
  8  9  2  0
  9 10  1  0
 10 11  2  0
 11 12  1  0
 12 13  2  0
 13 14  1  0
  8 15  1  0
 15 16  1  0
 16 17  2  0
 17 18  1  0
 18 19  1  0
 19 20  1  0
 20 21  2  0
 20 22  1  0
 22 23  1  0
 23 24  1  0
 24 25  1  0
 25 26  1  0
 19 27  1  0
 27 28  1  0
 13  4  1  0
 24 15  2  0
 12  7  1  0
 23 17  1  0
M  END
>  <AAScore>  (1) 
-1.699415655436335

>  <RootName>  (1) 
./4ZLY/04_DeltaGEst/trajectory_02/rank_01/lead_0275

$$$$
