confid_10
     RDKit          3D

 26 29  0  0  0  0  0  0  0  0999 V2000
   24.6900   26.1200   35.5300 N   0  0  0  0  0  0  0  0  0  0  0  0
   25.6600   25.6700   34.6600 C   0  0  0  0  0  0  0  0  0  0  0  0
   25.2400   25.0100   33.7200 O   0  0  0  0  0  0  0  0  0  0  0  0
   27.0300   26.2200   34.8800 C   0  0  0  0  0  0  0  0  0  0  0  0
   27.3500   26.7300   36.0700 N   0  0  0  0  0  0  0  0  0  0  0  0
   28.5700   27.1800   36.3300 N   0  0  0  0  0  0  0  0  0  0  0  0
   29.5300   27.1100   35.3900 C   0  0  0  0  0  0  0  0  0  0  0  0
   30.8300   27.5700   35.6500 C   0  0  0  0  0  0  0  0  0  0  0  0
   31.8500   27.5400   34.6900 C   0  0  0  0  0  0  0  0  0  0  0  0
   31.5100   27.1200   33.4000 C   0  0  0  0  0  0  0  0  0  0  0  0
   30.2200   26.6300   33.1100 C   0  0  0  0  0  0  0  0  0  0  0  0
   29.2400   26.6600   34.1000 C   0  0  0  0  0  0  0  0  0  0  0  0
   27.9300   26.2600   33.8100 C   0  0  0  0  0  0  0  0  0  0  0  0
   27.5200   25.7100   32.6100 N   0  0  0  0  0  0  0  0  0  0  0  0
   23.3258   26.3829   35.1555 C   0  0  0  0  0  0  0  0  0  0  0  0
   22.3952   26.1118   36.0200 N   0  0  0  0  0  0  0  0  0  0  0  0
   20.9615   26.2516   35.9970 C   0  0  0  0  0  0  0  0  0  0  0  0
   20.1358   26.4624   34.9388 C   0  0  0  0  0  0  0  0  0  0  0  0
   20.5527   26.7905   33.5090 C   0  0  2  0  0  0  0  0  0  0  0  0
   19.5114   26.1973   32.5374 C   0  0  0  0  0  0  0  0  0  0  0  0
   17.8696   27.0085   32.6524 S   0  0  0  0  0  0  0  0  0  0  0  0
   17.8904   27.4362   34.4296 C   0  0  0  0  0  0  0  0  0  0  0  0
   18.7119   26.4935   35.1908 N   0  0  0  0  0  0  0  0  0  0  0  0
   18.0731   25.5327   36.0981 C   0  0  0  0  0  0  0  0  0  0  0  0
   21.9484   26.3065   33.1023 C   0  0  0  0  0  0  0  0  0  0  0  0
   23.0248   27.0673   33.8608 C   0  0  0  0  0  0  0  0  0  0  0  0
  1  2  1  0
  2  3  2  0
  2  4  1  0
  4  5  2  0
  5  6  1  0
  6  7  2  0
  7  8  1  0
  8  9  2  0
  9 10  1  0
 10 11  2  0
 11 12  1  0
 12 13  2  0
 13 14  1  0
  1 15  1  0
 15 16  2  0
 16 17  1  0
 17 18  2  0
 18 19  1  0
 19 20  1  6
 20 21  1  0
 21 22  1  0
 22 23  1  0
 23 24  1  0
 19 25  1  0
 25 26  1  0
 13  4  1  0
 26 15  1  0
 12  7  1  0
 23 18  1  0
M  END
>  <AAScore>  (1) 
523.3846483443563

>  <RootName>  (1) 
./4ZLY/04_DeltaGEst/trajectory_02/rank_00/lead_0350

$$$$
