confid_12
     RDKit          3D

 29 32  0  0  0  0  0  0  0  0999 V2000
   24.5500   26.3900   36.2500 N   0  0  0  0  0  0  0  0  0  0  0  0
   25.6000   26.1300   35.4000 C   0  0  0  0  0  0  0  0  0  0  0  0
   25.4300   25.4300   34.4200 O   0  0  0  0  0  0  0  0  0  0  0  0
   26.9800   26.6300   35.7100 C   0  0  0  0  0  0  0  0  0  0  0  0
   27.3200   26.8200   36.9800 N   0  0  0  0  0  0  0  0  0  0  0  0
   28.4700   27.4000   37.3100 N   0  0  0  0  0  0  0  0  0  0  0  0
   29.4000   27.6300   36.3700 C   0  0  0  0  0  0  0  0  0  0  0  0
   30.6600   28.0500   36.8000 C   0  0  0  0  0  0  0  0  0  0  0  0
   31.5700   28.3600   35.7800 C   0  0  0  0  0  0  0  0  0  0  0  0
   31.3700   28.1000   34.4300 C   0  0  0  0  0  0  0  0  0  0  0  0
   30.1200   27.5900   34.0500 C   0  0  0  0  0  0  0  0  0  0  0  0
   29.1500   27.3400   35.0300 C   0  0  0  0  0  0  0  0  0  0  0  0
   27.8800   26.8900   34.6600 C   0  0  0  0  0  0  0  0  0  0  0  0
   27.4800   26.6100   33.3700 N   0  0  0  0  0  0  0  0  0  0  0  0
   30.9994   28.2752   38.2272 C   0  0  0  0  0  0  0  0  0  0  0  0
   30.9140   27.2043   39.1300 C   0  0  0  0  0  0  0  0  0  0  0  0
   31.2308   27.3782   40.4836 C   0  0  0  0  0  0  0  0  0  0  0  0
   31.1771   26.1877   41.4140 C   0  0  0  0  0  0  0  0  0  0  0  0
   31.1951   26.5501   42.8454 N   0  0  0  0  0  0  0  0  0  0  0  0
   31.0763   25.5088   43.8417 C   0  0  0  0  0  0  0  0  0  0  0  0
   30.8129   25.8058   45.0391 O   0  0  0  0  0  0  0  0  0  0  0  0
   31.2497   24.0617   43.4867 C   0  0  0  0  0  0  0  0  0  0  0  0
   31.1472   27.9590   43.2677 C   0  0  0  0  0  0  0  0  0  0  0  0
   32.0377   28.8189   42.3760 C   0  0  0  0  0  0  0  0  0  0  0  0
   31.6522   28.6383   40.9383 C   0  0  0  0  0  0  0  0  0  0  0  0
   31.7571   29.7083   40.0381 C   0  0  0  0  0  0  0  0  0  0  0  0
   31.4217   29.5405   38.6810 C   0  0  0  0  0  0  0  0  0  0  0  0
   31.4848   30.6056   37.7665 O   0  0  0  0  0  0  0  0  0  0  0  0
   31.8950   31.9295   38.0920 C   0  0  0  0  0  0  0  0  0  0  0  0
  1  2  1  0
  2  3  2  0
  2  4  1  0
  4  5  2  0
  5  6  1  0
  6  7  2  0
  7  8  1  0
  8  9  2  0
  9 10  1  0
 10 11  2  0
 11 12  1  0
 12 13  2  0
 13 14  1  0
  8 15  1  0
 15 16  2  0
 16 17  1  0
 17 18  1  0
 18 19  1  0
 19 20  1  0
 20 21  2  0
 20 22  1  0
 19 23  1  0
 23 24  1  0
 24 25  1  0
 25 26  1  0
 26 27  2  0
 27 28  1  0
 28 29  1  0
 13  4  1  0
 27 15  1  0
 12  7  1  0
 25 17  2  0
M  END
>  <AAScore>  (1) 
20.8529375098188

>  <RootName>  (1) 
./4ZLY/04_DeltaGEst/trajectory_01/rank_01/lead_0050

$$$$
