confid_0
     RDKit          3D

 27 29  0  0  0  0  0  0  0  0999 V2000
   24.4800   26.1000   36.1300 N   0  0  0  0  0  0  0  0  0  0  0  0
   25.2500   26.2500   34.9900 C   0  0  0  0  0  0  0  0  0  0  0  0
   24.7400   25.7600   33.9900 O   0  0  0  0  0  0  0  0  0  0  0  0
   26.5900   26.8900   34.9600 C   0  0  0  0  0  0  0  0  0  0  0  0
   27.0600   27.2400   36.1600 N   0  0  0  0  0  0  0  0  0  0  0  0
   28.3000   27.7100   36.2400 N   0  0  0  0  0  0  0  0  0  0  0  0
   29.0500   27.9600   35.1500 C   0  0  0  0  0  0  0  0  0  0  0  0
   30.3400   28.4900   35.2600 C   0  0  0  0  0  0  0  0  0  0  0  0
   31.1100   28.8200   34.1400 C   0  0  0  0  0  0  0  0  0  0  0  0
   30.5200   28.6700   32.8800 C   0  0  0  0  0  0  0  0  0  0  0  0
   29.2900   28.0200   32.7700 C   0  0  0  0  0  0  0  0  0  0  0  0
   28.5200   27.7100   33.8900 C   0  0  0  0  0  0  0  0  0  0  0  0
   27.2700   27.0800   33.7600 C   0  0  0  0  0  0  0  0  0  0  0  0
   26.7500   26.8800   32.4900 N   0  0  0  0  0  0  0  0  0  0  0  0
   23.0409   26.1793   36.1487 C   0  0  0  0  0  0  0  0  0  0  0  0
   22.3426   26.9555   35.2037 C   0  0  0  0  0  0  0  0  0  0  0  0
   20.9417   27.0406   35.2386 C   0  0  0  0  0  0  0  0  0  0  0  0
   20.2367   27.8404   34.2751 N   0  0  0  0  0  0  0  0  0  0  0  0
   20.7074   29.1836   33.9457 C   0  0  0  0  0  0  0  0  0  0  0  0
   18.9893   27.1289   33.2956 S   0  0  0  0  0  6  0  0  0  0  0  0
   17.6742   27.7956   33.5882 O   0  0  0  0  0  0  0  0  0  0  0  0
   18.8751   25.6587   33.5897 O   0  0  0  0  0  0  0  0  0  0  0  0
   19.4015   27.3270   31.5743 C   0  0  0  0  0  0  0  0  0  0  0  0
   20.2376   26.3542   36.2372 C   0  0  0  0  0  0  0  0  0  0  0  0
   20.9245   25.6019   37.1930 C   0  0  0  0  0  0  0  0  0  0  0  0
   22.3191   25.5161   37.1542 C   0  0  0  0  0  0  0  0  0  0  0  0
   22.9640   24.7628   38.0795 F   0  0  0  0  0  0  0  0  0  0  0  0
  1  2  1  0
  2  3  2  0
  2  4  1  0
  4  5  2  0
  5  6  1  0
  6  7  2  0
  7  8  1  0
  8  9  2  0
  9 10  1  0
 10 11  2  0
 11 12  1  0
 12 13  2  0
 13 14  1  0
  1 15  1  0
 15 16  2  0
 16 17  1  0
 17 18  1  0
 18 19  1  0
 18 20  1  0
 20 21  2  0
 20 22  2  0
 20 23  1  0
 17 24  2  0
 24 25  1  0
 25 26  2  0
 26 27  1  0
 13  4  1  0
 26 15  1  0
 12  7  1  0
M  END
>  <AAScore>  (1) 
357.38278084624073

>  <RootName>  (1) 
./4ZLY/04_DeltaGEst/trajectory_00/rank_00/lead_0459

$$$$
