confid_0
     RDKit          3D

 29 31  0  0  0  0  0  0  0  0999 V2000
   24.5700   26.8800   35.5900 N   0  0  0  0  0  0  0  0  0  0  0  0
   25.5000   26.4000   34.6900 C   0  0  0  0  0  0  0  0  0  0  0  0
   25.1700   25.5200   33.9100 O   0  0  0  0  0  0  0  0  0  0  0  0
   26.8400   27.0200   34.7400 C   0  0  0  0  0  0  0  0  0  0  0  0
   27.3800   27.2800   35.9400 N   0  0  0  0  0  0  0  0  0  0  0  0
   28.6200   27.7400   36.0300 N   0  0  0  0  0  0  0  0  0  0  0  0
   29.3800   28.0000   34.9600 C   0  0  0  0  0  0  0  0  0  0  0  0
   30.6700   28.5000   35.1300 C   0  0  0  0  0  0  0  0  0  0  0  0
   31.5400   28.6100   34.0300 C   0  0  0  0  0  0  0  0  0  0  0  0
   31.0900   28.2200   32.7700 C   0  0  0  0  0  0  0  0  0  0  0  0
   29.8000   27.7000   32.6000 C   0  0  0  0  0  0  0  0  0  0  0  0
   28.9600   27.5500   33.7100 C   0  0  0  0  0  0  0  0  0  0  0  0
   27.6600   27.0300   33.5900 C   0  0  0  0  0  0  0  0  0  0  0  0
   27.1600   26.7400   32.3400 N   0  0  0  0  0  0  0  0  0  0  0  0
   33.1672   29.2600   34.2422 S   0  0  0  0  0  6  0  0  0  0  0  0
   34.0749   28.7007   33.1815 O   0  0  0  0  0  0  0  0  0  0  0  0
   33.7021   28.8338   35.5814 O   0  0  0  0  0  0  0  0  0  0  0  0
   33.1582   31.0080   34.1435 N   0  0  0  0  0  0  0  0  0  0  0  0
   32.2657   31.5771   35.1733 C   0  0  0  0  0  0  0  0  0  0  0  0
   32.7042   32.9976   35.6459 C   0  0  0  0  0  0  0  0  0  0  0  0
   31.7483   33.3865   36.8036 C   0  0  0  0  0  0  0  0  0  0  0  0
   34.1279   32.9409   36.2427 C   0  0  0  0  0  0  0  0  0  0  0  0
   32.5310   34.0860   34.5199 C   0  0  0  0  0  0  0  0  0  0  0  0
   33.6670   34.3593   33.4641 C   0  0  0  0  0  0  0  0  0  0  0  0
   33.0375   35.0191   32.2040 C   0  0  0  0  0  0  0  0  0  0  0  0
   34.6560   35.4044   34.0286 C   0  0  0  0  0  0  0  0  0  0  0  0
   34.4550   33.2028   33.1782 O   0  0  0  0  0  0  0  0  0  0  0  0
   33.9348   32.2979   32.2192 C   0  0  0  0  0  0  0  0  0  0  0  0
   32.8005   31.4526   32.7793 C   0  0  0  0  0  0  0  0  0  0  0  0
  1  2  1  0
  2  3  2  0
  2  4  1  0
  4  5  2  0
  5  6  1  0
  6  7  2  0
  7  8  1  0
  8  9  2  0
  9 10  1  0
 10 11  2  0
 11 12  1  0
 12 13  2  0
 13 14  1  0
  9 15  1  0
 15 16  2  0
 15 17  2  0
 15 18  1  0
 18 19  1  0
 19 20  1  0
 20 21  1  0
 20 22  1  0
 20 23  1  0
 23 24  1  0
 24 25  1  0
 24 26  1  0
 24 27  1  0
 27 28  1  0
 28 29  1  0
 13  4  1  0
 29 18  1  0
 12  7  1  0
M  END
>  <AAScore>  (1) 
-5.485602120861738

>  <RootName>  (1) 
./4ZLY/04_DeltaGEst/trajectory_05/rank_01/lead_0121

$$$$
