confid_8
     RDKit          3D

 28 31  0  0  0  0  0  0  0  0999 V2000
   24.5500   26.3900   36.2500 N   0  0  0  0  0  0  0  0  0  0  0  0
   25.6000   26.1300   35.4000 C   0  0  0  0  0  0  0  0  0  0  0  0
   25.4300   25.4300   34.4200 O   0  0  0  0  0  0  0  0  0  0  0  0
   26.9800   26.6300   35.7100 C   0  0  0  0  0  0  0  0  0  0  0  0
   27.3200   26.8200   36.9800 N   0  0  0  0  0  0  0  0  0  0  0  0
   28.4700   27.4000   37.3100 N   0  0  0  0  0  0  0  0  0  0  0  0
   29.4000   27.6300   36.3700 C   0  0  0  0  0  0  0  0  0  0  0  0
   30.6600   28.0500   36.8000 C   0  0  0  0  0  0  0  0  0  0  0  0
   31.5700   28.3600   35.7800 C   0  0  0  0  0  0  0  0  0  0  0  0
   31.3700   28.1000   34.4300 C   0  0  0  0  0  0  0  0  0  0  0  0
   30.1200   27.5900   34.0500 C   0  0  0  0  0  0  0  0  0  0  0  0
   29.1500   27.3400   35.0300 C   0  0  0  0  0  0  0  0  0  0  0  0
   27.8800   26.8900   34.6600 C   0  0  0  0  0  0  0  0  0  0  0  0
   27.4800   26.6100   33.3700 N   0  0  0  0  0  0  0  0  0  0  0  0
   31.0066   28.3132   38.2192 C   0  0  0  0  0  0  0  0  0  0  0  0
   30.2004   29.1392   39.0128 C   0  0  0  0  0  0  0  0  0  0  0  0
   30.5417   29.4028   40.3455 C   0  0  0  0  0  0  0  0  0  0  0  0
   29.6195   30.2433   41.1967 C   0  0  0  0  0  0  0  0  0  0  0  0
   30.4071   31.0267   42.2494 C   0  0  0  0  0  0  0  0  0  0  0  0
   31.2601   30.1200   43.0256 N   0  0  0  0  0  0  0  0  0  0  0  0
   32.0027   29.0993   42.3340 C   0  0  0  0  0  0  0  0  0  0  0  0
   32.8845   28.4391   42.9487 O   0  0  0  0  0  0  0  0  0  0  0  0
   31.6962   28.8152   40.9077 C   0  0  0  0  0  0  0  0  0  0  0  0
   32.5254   27.9952   40.1082 C   0  0  0  0  0  0  0  0  0  0  0  0
   33.6901   27.4395   40.6648 O   0  0  0  0  0  0  0  0  0  0  0  0
   34.6067   26.6034   39.9656 C   0  0  0  0  0  0  0  0  0  0  0  0
   32.1707   27.7575   38.7661 C   0  0  0  0  0  0  0  0  0  0  0  0
   31.3912   30.2709   44.4765 C   0  0  0  0  0  0  0  0  0  0  0  0
  1  2  1  0
  2  3  2  0
  2  4  1  0
  4  5  2  0
  5  6  1  0
  6  7  2  0
  7  8  1  0
  8  9  2  0
  9 10  1  0
 10 11  2  0
 11 12  1  0
 12 13  2  0
 13 14  1  0
  8 15  1  0
 15 16  2  0
 16 17  1  0
 17 18  1  0
 18 19  1  0
 19 20  1  0
 20 21  1  0
 21 22  2  0
 21 23  1  0
 23 24  1  0
 24 25  1  0
 25 26  1  0
 24 27  2  0
 20 28  1  0
 13  4  1  0
 27 15  1  0
 12  7  1  0
 23 17  2  0
M  END
>  <AAScore>  (1) 
1373.6097507684876

>  <RootName>  (1) 
./4ZLY/04_DeltaGEst/trajectory_01/rank_01/lead_0384

$$$$
