confid_1
     RDKit          3D

 29 33  0  0  0  0  0  0  0  0999 V2000
   24.5500   26.3900   36.2500 N   0  0  0  0  0  0  0  0  0  0  0  0
   25.6000   26.1300   35.4000 C   0  0  0  0  0  0  0  0  0  0  0  0
   25.4300   25.4300   34.4200 O   0  0  0  0  0  0  0  0  0  0  0  0
   26.9800   26.6300   35.7100 C   0  0  0  0  0  0  0  0  0  0  0  0
   27.3200   26.8200   36.9800 N   0  0  0  0  0  0  0  0  0  0  0  0
   28.4700   27.4000   37.3100 N   0  0  0  0  0  0  0  0  0  0  0  0
   29.4000   27.6300   36.3700 C   0  0  0  0  0  0  0  0  0  0  0  0
   30.6600   28.0500   36.8000 C   0  0  0  0  0  0  0  0  0  0  0  0
   31.5700   28.3600   35.7800 C   0  0  0  0  0  0  0  0  0  0  0  0
   31.3700   28.1000   34.4300 C   0  0  0  0  0  0  0  0  0  0  0  0
   30.1200   27.5900   34.0500 C   0  0  0  0  0  0  0  0  0  0  0  0
   29.1500   27.3400   35.0300 C   0  0  0  0  0  0  0  0  0  0  0  0
   27.8800   26.8900   34.6600 C   0  0  0  0  0  0  0  0  0  0  0  0
   27.4800   26.6100   33.3700 N   0  0  0  0  0  0  0  0  0  0  0  0
   30.9714   28.2947   38.1824 N   0  0  0  0  0  0  0  0  0  0  0  0
   32.1578   27.6696   38.7769 C   0  0  0  0  0  0  0  0  0  0  0  0
   32.0281   27.5686   40.3087 C   0  0  0  0  0  0  0  0  0  0  0  0
   30.5465   27.5142   40.7775 C   0  0  0  0  0  0  0  0  0  0  0  0
   30.4908   27.3721   42.3126 C   0  0  0  0  0  0  0  0  0  0  0  0
   30.3669   25.9476   42.5693 N   0  0  0  0  0  0  0  0  0  0  0  0
   30.4489   25.3778   43.8859 C   0  0  0  0  0  0  0  0  0  0  0  0
   30.5627   26.1328   44.8894 O   0  0  0  0  0  0  0  0  0  0  0  0
   30.3465   23.8930   44.0914 C   0  0  0  0  0  0  0  0  0  0  0  0
   31.3428   23.3047   45.0815 C   0  0  0  0  0  0  0  0  0  0  0  0
   31.5473   23.1045   43.5908 C   0  0  0  0  0  0  0  0  0  0  0  0
   30.0876   25.1824   41.3670 C   0  0  0  0  0  0  0  0  0  0  0  0
   29.8574   26.2187   40.2759 C   0  0  0  0  0  0  0  0  0  0  0  0
   29.8006   28.8019   40.3132 C   0  0  0  0  0  0  0  0  0  0  0  0
   30.2539   29.3271   38.9358 C   0  0  0  0  0  0  0  0  0  0  0  0
  1  2  1  0
  2  3  2  0
  2  4  1  0
  4  5  2  0
  5  6  1  0
  6  7  2  0
  7  8  1  0
  8  9  2  0
  9 10  1  0
 10 11  2  0
 11 12  1  0
 12 13  2  0
 13 14  1  0
  8 15  1  0
 15 16  1  0
 16 17  1  0
 17 18  1  0
 18 19  1  0
 19 20  1  0
 20 21  1  0
 21 22  2  0
 21 23  1  0
 23 24  1  0
 24 25  1  0
 20 26  1  0
 26 27  1  0
 18 28  1  0
 28 29  1  0
 13  4  1  0
 29 15  1  0
 12  7  1  0
 27 18  1  0
 25 23  1  0
M  END
>  <AAScore>  (1) 
13.509665416464408

>  <RootName>  (1) 
./4ZLY/04_DeltaGEst/trajectory_01/rank_01/lead_0392

$$$$
