confid_15
     RDKit          3D

 27 30  0  0  0  0  0  0  0  0999 V2000
   24.6900   26.1200   35.5300 N   0  0  0  0  0  0  0  0  0  0  0  0
   25.6600   25.6700   34.6600 C   0  0  0  0  0  0  0  0  0  0  0  0
   25.2400   25.0100   33.7200 O   0  0  0  0  0  0  0  0  0  0  0  0
   27.0300   26.2200   34.8800 C   0  0  0  0  0  0  0  0  0  0  0  0
   27.3500   26.7300   36.0700 N   0  0  0  0  0  0  0  0  0  0  0  0
   28.5700   27.1800   36.3300 N   0  0  0  0  0  0  0  0  0  0  0  0
   29.5300   27.1100   35.3900 C   0  0  0  0  0  0  0  0  0  0  0  0
   30.8300   27.5700   35.6500 C   0  0  0  0  0  0  0  0  0  0  0  0
   31.8500   27.5400   34.6900 C   0  0  0  0  0  0  0  0  0  0  0  0
   31.5100   27.1200   33.4000 C   0  0  0  0  0  0  0  0  0  0  0  0
   30.2200   26.6300   33.1100 C   0  0  0  0  0  0  0  0  0  0  0  0
   29.2400   26.6600   34.1000 C   0  0  0  0  0  0  0  0  0  0  0  0
   27.9300   26.2600   33.8100 C   0  0  0  0  0  0  0  0  0  0  0  0
   27.5200   25.7100   32.6100 N   0  0  0  0  0  0  0  0  0  0  0  0
   31.1515   28.0690   36.9597 N   0  0  0  0  0  0  0  0  0  0  0  0
   31.3990   27.1328   38.0637 C   0  0  0  0  0  0  0  0  0  0  0  0
   30.4155   27.3383   39.2256 C   0  0  0  0  0  0  0  0  0  0  0  0
   30.2698   28.8056   39.6472 C   0  0  0  0  0  0  0  0  0  0  0  0
   29.4336   29.5246   38.6485 N   0  0  0  0  0  0  0  0  0  0  0  0
   28.3931   30.3785   39.3093 C   0  0  0  0  0  0  0  0  0  0  0  0
   27.6568   31.3417   38.3385 C   0  0  0  0  0  0  0  0  0  0  0  0
   26.7910   30.5629   37.3381 C   0  0  0  0  0  0  0  0  0  0  0  0
   25.7851   29.7660   38.0504 N   0  0  0  0  0  0  0  0  0  0  0  0
   26.4269   28.7965   38.9472 C   0  0  0  0  0  0  0  0  0  0  0  0
   27.2960   29.5119   39.9878 C   0  0  0  0  0  0  0  0  0  0  0  0
   30.2815   30.2794   37.6845 C   0  0  0  0  0  0  0  0  0  0  0  0
   31.4827   29.4869   37.1349 C   0  0  0  0  0  0  0  0  0  0  0  0
  1  2  1  0
  2  3  2  0
  2  4  1  0
  4  5  2  0
  5  6  1  0
  6  7  2  0
  7  8  1  0
  8  9  2  0
  9 10  1  0
 10 11  2  0
 11 12  1  0
 12 13  2  0
 13 14  1  0
  8 15  1  0
 15 16  1  0
 16 17  1  0
 17 18  1  0
 18 19  1  0
 19 20  1  0
 20 21  1  0
 21 22  1  0
 22 23  1  0
 23 24  1  0
 24 25  1  0
 19 26  1  0
 26 27  1  0
 13  4  1  0
 27 15  1  0
 12  7  1  0
 25 20  1  0
M  END
>  <AAScore>  (1) 
-7.010173862260314

>  <RootName>  (1) 
./4ZLY/04_DeltaGEst/trajectory_02/rank_01/lead_0390

$$$$
