confid_18
     RDKit          3D

 26 28  0  0  0  0  0  0  0  0999 V2000
   24.5700   26.8800   35.5900 N   0  0  0  0  0  0  0  0  0  0  0  0
   25.5000   26.4000   34.6900 C   0  0  0  0  0  0  0  0  0  0  0  0
   25.1700   25.5200   33.9100 O   0  0  0  0  0  0  0  0  0  0  0  0
   26.8400   27.0200   34.7400 C   0  0  0  0  0  0  0  0  0  0  0  0
   27.3800   27.2800   35.9400 N   0  0  0  0  0  0  0  0  0  0  0  0
   28.6200   27.7400   36.0300 N   0  0  0  0  0  0  0  0  0  0  0  0
   29.3800   28.0000   34.9600 C   0  0  0  0  0  0  0  0  0  0  0  0
   30.6700   28.5000   35.1300 C   0  0  0  0  0  0  0  0  0  0  0  0
   31.5400   28.6100   34.0300 C   0  0  0  0  0  0  0  0  0  0  0  0
   31.0900   28.2200   32.7700 C   0  0  0  0  0  0  0  0  0  0  0  0
   29.8000   27.7000   32.6000 C   0  0  0  0  0  0  0  0  0  0  0  0
   28.9600   27.5500   33.7100 C   0  0  0  0  0  0  0  0  0  0  0  0
   27.6600   27.0300   33.5900 C   0  0  0  0  0  0  0  0  0  0  0  0
   27.1600   26.7400   32.3400 N   0  0  0  0  0  0  0  0  0  0  0  0
   23.1481   26.7015   35.4656 C   0  0  0  0  0  0  0  0  0  0  0  0
   22.3927   26.6222   36.5932 N   0  0  0  0  0  0  0  0  0  0  0  0
   21.0389   26.4799   36.5812 C   0  0  0  0  0  0  0  0  0  0  0  0
   20.4076   26.3955   37.8374 O   0  0  0  0  0  0  0  0  0  0  0  0
   19.0544   26.0487   38.1130 C   0  0  0  0  0  0  0  0  0  0  0  0
   18.7771   24.7865   37.6190 F   0  0  0  0  0  0  0  0  0  0  0  0
   18.8681   26.0374   39.4817 F   0  0  0  0  0  0  0  0  0  0  0  0
   20.3712   26.4355   35.3267 C   0  0  0  0  0  0  0  0  0  0  0  0
   21.1307   26.5367   34.1545 C   0  0  0  0  0  0  0  0  0  0  0  0
   22.5149   26.6749   34.2167 C   0  0  0  0  0  0  0  0  0  0  0  0
   18.9413   26.3322   35.1788 C   0  0  0  0  0  0  0  0  0  0  0  0
   17.7942   26.2499   35.0462 N   0  0  0  0  0  0  0  0  0  0  0  0
  1  2  1  0
  2  3  2  0
  2  4  1  0
  4  5  2  0
  5  6  1  0
  6  7  2  0
  7  8  1  0
  8  9  2  0
  9 10  1  0
 10 11  2  0
 11 12  1  0
 12 13  2  0
 13 14  1  0
  1 15  1  0
 15 16  2  0
 16 17  1  0
 17 18  1  0
 18 19  1  0
 19 20  1  0
 19 21  1  0
 17 22  2  0
 22 23  1  0
 23 24  2  0
 22 25  1  0
 25 26  3  0
 13  4  1  0
 24 15  1  0
 12  7  1  0
M  END
>  <AAScore>  (1) 
2156.407568487699

>  <RootName>  (1) 
./4ZLY/04_DeltaGEst/trajectory_05/rank_00/lead_0201

$$$$
