confid_5
     RDKit          3D

 27 30  0  0  0  0  0  0  0  0999 V2000
   24.5700   26.8800   35.5900 N   0  0  0  0  0  0  0  0  0  0  0  0
   25.5000   26.4000   34.6900 C   0  0  0  0  0  0  0  0  0  0  0  0
   25.1700   25.5200   33.9100 O   0  0  0  0  0  0  0  0  0  0  0  0
   26.8400   27.0200   34.7400 C   0  0  0  0  0  0  0  0  0  0  0  0
   27.3800   27.2800   35.9400 N   0  0  0  0  0  0  0  0  0  0  0  0
   28.6200   27.7400   36.0300 N   0  0  0  0  0  0  0  0  0  0  0  0
   29.3800   28.0000   34.9600 C   0  0  0  0  0  0  0  0  0  0  0  0
   30.6700   28.5000   35.1300 C   0  0  0  0  0  0  0  0  0  0  0  0
   31.5400   28.6100   34.0300 C   0  0  0  0  0  0  0  0  0  0  0  0
   31.0900   28.2200   32.7700 C   0  0  0  0  0  0  0  0  0  0  0  0
   29.8000   27.7000   32.6000 C   0  0  0  0  0  0  0  0  0  0  0  0
   28.9600   27.5500   33.7100 C   0  0  0  0  0  0  0  0  0  0  0  0
   27.6600   27.0300   33.5900 C   0  0  0  0  0  0  0  0  0  0  0  0
   27.1600   26.7400   32.3400 N   0  0  0  0  0  0  0  0  0  0  0  0
   23.1872   26.5047   35.5457 C   0  0  0  0  0  0  0  0  0  0  0  0
   22.5677   25.9260   36.5959 N   0  0  0  0  0  0  0  0  0  0  0  0
   21.2964   25.7674   36.1818 C   0  0  0  0  0  0  0  0  0  0  0  0
   21.1638   26.2760   34.9086 C   0  0  0  0  0  0  0  0  0  0  0  0
   19.9006   26.2648   34.0991 C   0  0  0  0  0  0  0  0  0  0  0  0
   19.7864   27.5066   33.3271 N   0  0  0  0  0  0  0  0  0  0  0  0
   20.4469   27.5855   32.0142 C   0  0  0  0  0  0  0  0  0  0  0  0
   21.8908   27.0555   32.0635 C   0  0  0  0  0  0  0  0  0  0  0  0
   22.6557   27.5485   33.3016 C   0  0  0  0  0  0  0  0  0  0  0  0
   22.3671   26.7279   34.4900 N   0  0  0  0  0  0  0  0  0  0  0  0
   19.0648   28.6457   33.8484 C   0  0  0  0  0  0  0  0  0  0  0  0
   18.6923   29.5653   33.0701 O   0  0  0  0  0  0  0  0  0  0  0  0
   18.7161   28.7563   35.3026 C   0  0  0  0  0  0  0  0  0  0  0  0
  1  2  1  0
  2  3  2  0
  2  4  1  0
  4  5  2  0
  5  6  1  0
  6  7  2  0
  7  8  1  0
  8  9  2  0
  9 10  1  0
 10 11  2  0
 11 12  1  0
 12 13  2  0
 13 14  1  0
  1 15  1  0
 15 16  2  0
 16 17  1  0
 17 18  2  0
 18 19  1  0
 19 20  1  0
 20 21  1  0
 21 22  1  0
 22 23  1  0
 23 24  1  0
 20 25  1  0
 25 26  2  0
 25 27  1  0
 13  4  1  0
 24 15  1  0
 12  7  1  0
 24 18  1  0
M  END
>  <AAScore>  (1) 
2594.5310475676088

>  <RootName>  (1) 
./4ZLY/04_DeltaGEst/trajectory_05/rank_00/lead_0080

$$$$
