confid_1
     RDKit          3D

 27 30  0  0  0  0  0  0  0  0999 V2000
   24.4800   26.1000   36.1300 N   0  0  0  0  0  0  0  0  0  0  0  0
   25.2500   26.2500   34.9900 C   0  0  0  0  0  0  0  0  0  0  0  0
   24.7400   25.7600   33.9900 O   0  0  0  0  0  0  0  0  0  0  0  0
   26.5900   26.8900   34.9600 C   0  0  0  0  0  0  0  0  0  0  0  0
   27.0600   27.2400   36.1600 N   0  0  0  0  0  0  0  0  0  0  0  0
   28.3000   27.7100   36.2400 N   0  0  0  0  0  0  0  0  0  0  0  0
   29.0500   27.9600   35.1500 C   0  0  0  0  0  0  0  0  0  0  0  0
   30.3400   28.4900   35.2600 C   0  0  0  0  0  0  0  0  0  0  0  0
   31.1100   28.8200   34.1400 C   0  0  0  0  0  0  0  0  0  0  0  0
   30.5200   28.6700   32.8800 C   0  0  0  0  0  0  0  0  0  0  0  0
   29.2900   28.0200   32.7700 C   0  0  0  0  0  0  0  0  0  0  0  0
   28.5200   27.7100   33.8900 C   0  0  0  0  0  0  0  0  0  0  0  0
   27.2700   27.0800   33.7600 C   0  0  0  0  0  0  0  0  0  0  0  0
   26.7500   26.8800   32.4900 N   0  0  0  0  0  0  0  0  0  0  0  0
   23.0475   25.9289   36.1236 C   0  0  0  0  0  0  0  0  0  0  0  0
   22.3215   26.4530   35.0994 N   0  0  0  0  0  0  0  0  0  0  0  0
   20.9697   26.3852   35.0525 C   0  0  0  0  0  0  0  0  0  0  0  0
   20.2581   25.8000   36.1039 C   0  0  0  0  0  0  0  0  0  0  0  0
   18.7815   25.7299   36.0744 C   0  0  0  0  0  0  0  0  0  0  0  0
   18.1473   26.0234   35.0237 O   0  0  0  0  0  0  0  0  0  0  0  0
   18.0760   25.3050   37.2506 N   0  0  0  0  0  0  0  0  0  0  0  0
   18.8007   25.2667   38.5240 C   0  0  0  0  0  0  0  0  0  0  0  0
   20.1805   24.6247   38.3393 C   0  0  0  0  0  0  0  0  0  0  0  0
   20.9624   25.2706   37.2063 C   0  0  0  0  0  0  0  0  0  0  0  0
   22.3823   25.2712   37.1872 C   0  0  0  0  0  0  0  0  0  0  0  0
   23.1770   24.5928   38.2805 C   0  0  0  0  0  0  0  0  0  0  0  0
   16.6518   24.9732   37.1801 C   0  0  0  0  0  0  0  0  0  0  0  0
  1  2  1  0
  2  3  2  0
  2  4  1  0
  4  5  2  0
  5  6  1  0
  6  7  2  0
  7  8  1  0
  8  9  2  0
  9 10  1  0
 10 11  2  0
 11 12  1  0
 12 13  2  0
 13 14  1  0
  1 15  1  0
 15 16  2  0
 16 17  1  0
 17 18  2  0
 18 19  1  0
 19 20  2  0
 19 21  1  0
 21 22  1  0
 22 23  1  0
 23 24  1  0
 24 25  2  0
 25 26  1  0
 21 27  1  0
 13  4  1  0
 25 15  1  0
 12  7  1  0
 24 18  1  0
M  END
>  <AAScore>  (1) 
22233.218127744574

>  <RootName>  (1) 
./4ZLY/04_DeltaGEst/trajectory_00/rank_00/lead_0234

$$$$
