confid_16
     RDKit          3D

 30 33  0  0  0  0  0  0  0  0999 V2000
   24.4800   26.1000   36.1300 N   0  0  0  0  0  0  0  0  0  0  0  0
   25.2500   26.2500   34.9900 C   0  0  0  0  0  0  0  0  0  0  0  0
   24.7400   25.7600   33.9900 O   0  0  0  0  0  0  0  0  0  0  0  0
   26.5900   26.8900   34.9600 C   0  0  0  0  0  0  0  0  0  0  0  0
   27.0600   27.2400   36.1600 N   0  0  0  0  0  0  0  0  0  0  0  0
   28.3000   27.7100   36.2400 N   0  0  0  0  0  0  0  0  0  0  0  0
   29.0500   27.9600   35.1500 C   0  0  0  0  0  0  0  0  0  0  0  0
   30.3400   28.4900   35.2600 C   0  0  0  0  0  0  0  0  0  0  0  0
   31.1100   28.8200   34.1400 C   0  0  0  0  0  0  0  0  0  0  0  0
   30.5200   28.6700   32.8800 C   0  0  0  0  0  0  0  0  0  0  0  0
   29.2900   28.0200   32.7700 C   0  0  0  0  0  0  0  0  0  0  0  0
   28.5200   27.7100   33.8900 C   0  0  0  0  0  0  0  0  0  0  0  0
   27.2700   27.0800   33.7600 C   0  0  0  0  0  0  0  0  0  0  0  0
   26.7500   26.8800   32.4900 N   0  0  0  0  0  0  0  0  0  0  0  0
   23.0395   26.0202   36.1607 C   0  0  0  0  0  0  0  0  0  0  0  0
   22.3741   26.3639   35.0821 N   0  0  0  0  0  0  0  0  0  0  0  0
   20.9696   26.4496   34.7871 C   0  0  0  0  0  0  0  0  0  0  0  0
   20.0761   27.0958   35.5556 C   0  0  0  0  0  0  0  0  0  0  0  0
   20.4575   27.6029   36.9018 C   0  0  0  0  0  0  0  0  0  0  0  0
   20.1358   26.5349   37.8604 N   0  0  0  0  0  0  0  0  0  0  0  0
   18.6702   26.2308   37.8669 C   0  0  0  0  0  0  0  0  0  0  0  0
   17.8616   26.7491   36.6314 C   0  0  0  0  0  0  0  0  0  0  0  0
   18.6710   26.8340   35.4015 N   0  0  0  0  0  0  0  0  0  0  0  0
   17.9950   26.9722   34.1013 C   0  0  0  0  0  0  0  0  0  0  0  0
   17.3075   28.3380   33.9542 C   0  0  0  0  0  0  0  0  0  0  0  0
   18.3004   29.5011   33.9969 C   0  0  0  0  0  0  0  0  0  0  0  0
   17.6138   30.7020   33.7154 O   0  0  0  0  0  0  0  0  0  0  0  0
   18.5215   31.7799   33.7568 C   0  0  0  0  0  0  0  0  0  0  0  0
   20.9210   25.2989   37.5984 C   0  0  0  0  0  0  0  0  0  0  0  0
   22.4357   25.5536   37.4884 C   0  0  0  0  0  0  0  0  0  0  0  0
  1  2  1  0
  2  3  2  0
  2  4  1  0
  4  5  2  0
  5  6  1  0
  6  7  2  0
  7  8  1  0
  8  9  2  0
  9 10  1  0
 10 11  2  0
 11 12  1  0
 12 13  2  0
 13 14  1  0
  1 15  1  0
 15 16  2  0
 16 17  1  0
 17 18  2  0
 18 19  1  0
 19 20  1  0
 20 21  1  0
 21 22  1  0
 22 23  1  0
 23 24  1  0
 24 25  1  0
 25 26  1  0
 26 27  1  0
 27 28  1  0
 20 29  1  0
 29 30  1  0
 13  4  1  0
 30 15  1  0
 12  7  1  0
 23 18  1  0
M  END
>  <AAScore>  (1) 
449.16116163794527

>  <RootName>  (1) 
./4ZLY/04_DeltaGEst/trajectory_00/rank_01/lead_0034

$$$$
