confid_3
     RDKit          3D

 27 30  0  0  0  0  0  0  0  0999 V2000
   24.6900   26.1200   35.5300 N   0  0  0  0  0  0  0  0  0  0  0  0
   25.6600   25.6700   34.6600 C   0  0  0  0  0  0  0  0  0  0  0  0
   25.2400   25.0100   33.7200 O   0  0  0  0  0  0  0  0  0  0  0  0
   27.0300   26.2200   34.8800 C   0  0  0  0  0  0  0  0  0  0  0  0
   27.3500   26.7300   36.0700 N   0  0  0  0  0  0  0  0  0  0  0  0
   28.5700   27.1800   36.3300 N   0  0  0  0  0  0  0  0  0  0  0  0
   29.5300   27.1100   35.3900 C   0  0  0  0  0  0  0  0  0  0  0  0
   30.8300   27.5700   35.6500 C   0  0  0  0  0  0  0  0  0  0  0  0
   31.8500   27.5400   34.6900 C   0  0  0  0  0  0  0  0  0  0  0  0
   31.5100   27.1200   33.4000 C   0  0  0  0  0  0  0  0  0  0  0  0
   30.2200   26.6300   33.1100 C   0  0  0  0  0  0  0  0  0  0  0  0
   29.2400   26.6600   34.1000 C   0  0  0  0  0  0  0  0  0  0  0  0
   27.9300   26.2600   33.8100 C   0  0  0  0  0  0  0  0  0  0  0  0
   27.5200   25.7100   32.6100 N   0  0  0  0  0  0  0  0  0  0  0  0
   31.1470   28.0597   36.9657 N   0  0  0  0  0  0  0  0  0  0  0  0
   31.1851   27.1355   38.0997 C   0  0  0  0  0  0  0  0  0  0  0  0
   30.4651   27.7648   39.2887 C   0  0  0  0  0  0  0  0  0  0  0  0
   30.9317   29.1774   39.5392 C   0  0  0  0  0  0  0  0  0  0  0  0
   30.7259   29.7485   40.8036 C   0  0  0  0  0  0  0  0  0  0  0  0
   31.0968   31.0814   41.0630 C   0  0  0  0  0  0  0  0  0  0  0  0
   31.6726   31.8491   40.0348 C   0  0  0  0  0  0  0  0  0  0  0  0
   32.0743   33.2748   40.2924 C   0  0  0  0  0  0  0  0  0  0  0  0
   31.8602   31.2854   38.7639 C   0  0  0  0  0  0  0  0  0  0  0  0
   31.4840   29.9610   38.5024 C   0  0  0  0  0  0  0  0  0  0  0  0
   31.7395   29.3916   37.1260 C   0  0  0  0  0  0  0  0  0  0  0  0
   30.9065   31.6723   42.3236 O   0  0  0  0  0  0  0  0  0  0  0  0
   30.3365   31.0121   43.4491 C   0  0  0  0  0  0  0  0  0  0  0  0
  1  2  1  0
  2  3  2  0
  2  4  1  0
  4  5  2  0
  5  6  1  0
  6  7  2  0
  7  8  1  0
  8  9  2  0
  9 10  1  0
 10 11  2  0
 11 12  1  0
 12 13  2  0
 13 14  1  0
  8 15  1  0
 15 16  1  0
 16 17  1  0
 17 18  1  0
 18 19  2  0
 19 20  1  0
 20 21  2  0
 21 22  1  0
 21 23  1  0
 23 24  2  0
 24 25  1  0
 20 26  1  0
 26 27  1  0
 13  4  1  0
 25 15  1  0
 12  7  1  0
 24 18  1  0
M  END
>  <AAScore>  (1) 
-6.72443471815731

>  <RootName>  (1) 
./4ZLY/04_DeltaGEst/trajectory_02/rank_01/lead_0385

$$$$
