confid_16
     RDKit          3D

 27 30  0  0  0  0  0  0  0  0999 V2000
   24.5700   26.8800   35.5900 N   0  0  0  0  0  0  0  0  0  0  0  0
   25.5000   26.4000   34.6900 C   0  0  0  0  0  0  0  0  0  0  0  0
   25.1700   25.5200   33.9100 O   0  0  0  0  0  0  0  0  0  0  0  0
   26.8400   27.0200   34.7400 C   0  0  0  0  0  0  0  0  0  0  0  0
   27.3800   27.2800   35.9400 N   0  0  0  0  0  0  0  0  0  0  0  0
   28.6200   27.7400   36.0300 N   0  0  0  0  0  0  0  0  0  0  0  0
   29.3800   28.0000   34.9600 C   0  0  0  0  0  0  0  0  0  0  0  0
   30.6700   28.5000   35.1300 C   0  0  0  0  0  0  0  0  0  0  0  0
   31.5400   28.6100   34.0300 C   0  0  0  0  0  0  0  0  0  0  0  0
   31.0900   28.2200   32.7700 C   0  0  0  0  0  0  0  0  0  0  0  0
   29.8000   27.7000   32.6000 C   0  0  0  0  0  0  0  0  0  0  0  0
   28.9600   27.5500   33.7100 C   0  0  0  0  0  0  0  0  0  0  0  0
   27.6600   27.0300   33.5900 C   0  0  0  0  0  0  0  0  0  0  0  0
   27.1600   26.7400   32.3400 N   0  0  0  0  0  0  0  0  0  0  0  0
   23.3674   26.1896   35.9716 C   0  0  0  0  0  0  0  0  0  0  0  0
   22.2752   26.9170   36.3273 N   0  0  0  0  0  0  0  0  0  0  0  0
   21.1158   26.3358   36.7312 C   0  0  0  0  0  0  0  0  0  0  0  0
   21.0104   24.9390   36.8113 C   0  0  0  0  0  0  0  0  0  0  0  0
   19.7291   24.3161   37.3146 C   0  0  0  0  0  0  0  0  0  0  0  0
   20.0497   23.1496   38.1727 N   0  0  0  0  0  0  0  0  0  0  0  0
   19.5648   23.3375   39.5489 C   0  0  0  0  0  0  0  0  0  0  0  0
   19.5559   21.8682   37.6246 C   0  0  0  0  0  0  0  0  0  0  0  0
   20.0166   21.6054   36.2105 C   0  0  0  0  0  0  0  0  0  0  0  0
   21.1788   22.0297   35.7071 C   0  0  0  0  0  0  0  0  0  0  0  0
   22.0956   22.7594   36.4644 O   0  0  0  0  0  0  0  0  0  0  0  0
   22.1268   24.1577   36.4312 C   0  0  0  0  0  0  0  0  0  0  0  0
   23.3118   24.7886   36.0436 C   0  0  0  0  0  0  0  0  0  0  0  0
  1  2  1  0
  2  3  2  0
  2  4  1  0
  4  5  2  0
  5  6  1  0
  6  7  2  0
  7  8  1  0
  8  9  2  0
  9 10  1  0
 10 11  2  0
 11 12  1  0
 12 13  2  0
 13 14  1  0
  1 15  1  0
 15 16  2  0
 16 17  1  0
 17 18  2  0
 18 19  1  0
 19 20  1  0
 20 21  1  0
 20 22  1  0
 22 23  1  0
 23 24  2  0
 24 25  1  0
 25 26  1  0
 26 27  2  0
 13  4  1  0
 27 15  1  0
 12  7  1  0
 26 18  1  0
M  END
>  <AAScore>  (1) 
1831.9538526967888

>  <RootName>  (1) 
./4ZLY/04_DeltaGEst/trajectory_05/rank_00/lead_0132

$$$$
