confid_1
     RDKit          3D

 27 30  0  0  0  0  0  0  0  0999 V2000
   24.2000   26.2400   35.6900 N   0  0  0  0  0  0  0  0  0  0  0  0
   24.8500   26.2800   34.4800 C   0  0  0  0  0  0  0  0  0  0  0  0
   24.3100   25.7400   33.5400 O   0  0  0  0  0  0  0  0  0  0  0  0
   26.1800   26.9700   34.4700 C   0  0  0  0  0  0  0  0  0  0  0  0
   26.6500   27.6000   35.5500 N   0  0  0  0  0  0  0  0  0  0  0  0
   27.7900   28.2700   35.6200 N   0  0  0  0  0  0  0  0  0  0  0  0
   28.5400   28.3000   34.5100 C   0  0  0  0  0  0  0  0  0  0  0  0
   29.7700   28.9400   34.5600 C   0  0  0  0  0  0  0  0  0  0  0  0
   30.7000   28.8900   33.5000 C   0  0  0  0  0  0  0  0  0  0  0  0
   30.3700   28.1400   32.3700 C   0  0  0  0  0  0  0  0  0  0  0  0
   29.1200   27.5200   32.2800 C   0  0  0  0  0  0  0  0  0  0  0  0
   28.2100   27.6100   33.3300 C   0  0  0  0  0  0  0  0  0  0  0  0
   26.9700   26.9700   33.3100 C   0  0  0  0  0  0  0  0  0  0  0  0
   26.5300   26.2400   32.2200 N   0  0  0  0  0  0  0  0  0  0  0  0
   30.1305   29.6761   35.7423 N   0  0  0  0  0  0  0  0  0  0  0  0
   31.3505   29.3368   36.4713 C   0  0  0  0  0  0  0  0  0  0  0  0
   31.0700   29.3764   37.9700 C   0  0  0  0  0  0  0  0  0  0  0  0
   30.3531   30.6459   38.3864 C   0  0  0  0  0  0  0  0  0  0  0  0
   30.3687   31.0667   39.7389 C   0  0  0  0  0  0  0  0  0  0  0  0
   29.6637   32.2162   40.1249 C   0  0  0  0  0  0  0  0  0  0  0  0
   29.6798   32.6343   41.4168 F   0  0  0  0  0  0  0  0  0  0  0  0
   28.9317   32.9403   39.1851 C   0  0  0  0  0  0  0  0  0  0  0  0
   28.8877   32.5224   37.8565 C   0  0  0  0  0  0  0  0  0  0  0  0
   29.5780   31.3726   37.4467 C   0  0  0  0  0  0  0  0  0  0  0  0
   29.5095   30.9797   35.9894 C   0  0  0  0  0  0  0  0  0  0  0  0
   31.0927   30.3267   40.7468 C   0  0  0  0  0  0  0  0  0  0  0  0
   31.6724   29.7339   41.5543 N   0  0  0  0  0  0  0  0  0  0  0  0
  1  2  1  0
  2  3  2  0
  2  4  1  0
  4  5  2  0
  5  6  1  0
  6  7  2  0
  7  8  1  0
  8  9  2  0
  9 10  1  0
 10 11  2  0
 11 12  1  0
 12 13  2  0
 13 14  1  0
  8 15  1  0
 15 16  1  0
 16 17  1  0
 17 18  1  0
 18 19  2  0
 19 20  1  0
 20 21  1  0
 20 22  2  0
 22 23  1  0
 23 24  2  0
 24 25  1  0
 19 26  1  0
 26 27  3  0
 13  4  1  0
 25 15  1  0
 12  7  1  0
 24 18  1  0
M  END
>  <AAScore>  (1) 
-10.121489510005778

>  <RootName>  (1) 
./4ZLY/04_DeltaGEst/trajectory_04/rank_01/lead_0099

$$$$
