confid_13
     RDKit          3D

 26 29  0  0  0  0  0  0  0  0999 V2000
   24.5700   26.8800   35.5900 N   0  0  0  0  0  0  0  0  0  0  0  0
   25.5000   26.4000   34.6900 C   0  0  0  0  0  0  0  0  0  0  0  0
   25.1700   25.5200   33.9100 O   0  0  0  0  0  0  0  0  0  0  0  0
   26.8400   27.0200   34.7400 C   0  0  0  0  0  0  0  0  0  0  0  0
   27.3800   27.2800   35.9400 N   0  0  0  0  0  0  0  0  0  0  0  0
   28.6200   27.7400   36.0300 N   0  0  0  0  0  0  0  0  0  0  0  0
   29.3800   28.0000   34.9600 C   0  0  0  0  0  0  0  0  0  0  0  0
   30.6700   28.5000   35.1300 C   0  0  0  0  0  0  0  0  0  0  0  0
   31.5400   28.6100   34.0300 C   0  0  0  0  0  0  0  0  0  0  0  0
   31.0900   28.2200   32.7700 C   0  0  0  0  0  0  0  0  0  0  0  0
   29.8000   27.7000   32.6000 C   0  0  0  0  0  0  0  0  0  0  0  0
   28.9600   27.5500   33.7100 C   0  0  0  0  0  0  0  0  0  0  0  0
   27.6600   27.0300   33.5900 C   0  0  0  0  0  0  0  0  0  0  0  0
   27.1600   26.7400   32.3400 N   0  0  0  0  0  0  0  0  0  0  0  0
   23.1759   26.5216   35.5908 C   0  0  0  0  0  0  0  0  0  0  0  0
   22.6129   25.8705   34.6233 N   0  0  0  0  0  0  0  0  0  0  0  0
   21.2292   25.7858   34.9244 C   0  0  0  0  0  0  0  0  0  0  0  0
   20.9444   26.4198   36.0513 C   0  0  0  0  0  0  0  0  0  0  0  0
   19.6442   26.3312   36.7810 C   0  0  0  0  0  0  0  0  0  0  0  0
   19.7855   25.3770   37.8126 O   0  0  0  0  0  0  0  0  0  0  0  0
   20.1079   25.9840   39.0522 C   0  0  0  0  0  0  0  0  0  0  0  0
   21.4115   26.8258   39.0579 C   0  0  0  0  0  0  0  0  0  0  0  0
   22.4904   26.3912   38.0409 C   0  0  0  0  0  0  0  0  0  0  0  0
   22.5726   25.0073   37.9913 F   0  0  0  0  0  0  0  0  0  0  0  0
   23.7113   26.8783   38.4775 F   0  0  0  0  0  0  0  0  0  0  0  0
   22.1995   26.9750   36.6385 C   0  0  1  0  0  0  0  0  0  0  0  0
  1  2  1  0
  2  3  2  0
  2  4  1  0
  4  5  2  0
  5  6  1  0
  6  7  2  0
  7  8  1  0
  8  9  2  0
  9 10  1  0
 10 11  2  0
 11 12  1  0
 12 13  2  0
 13 14  1  0
  1 15  1  0
 15 16  2  0
 16 17  1  0
 17 18  2  0
 18 19  1  0
 19 20  1  0
 20 21  1  0
 21 22  1  0
 22 23  1  0
 23 24  1  0
 23 25  1  0
 26 23  1  1
 13  4  1  0
 26 15  1  0
 12  7  1  0
 26 18  1  0
M  END
>  <AAScore>  (1) 
65.14567304232637

>  <RootName>  (1) 
./4ZLY/04_DeltaGEst/trajectory_05/rank_00/lead_0127

$$$$
