confid_1
     RDKit          3D

 28 31  0  0  0  0  0  0  0  0999 V2000
   24.2000   26.2400   35.6900 N   0  0  0  0  0  0  0  0  0  0  0  0
   24.8500   26.2800   34.4800 C   0  0  0  0  0  0  0  0  0  0  0  0
   24.3100   25.7400   33.5400 O   0  0  0  0  0  0  0  0  0  0  0  0
   26.1800   26.9700   34.4700 C   0  0  0  0  0  0  0  0  0  0  0  0
   26.6500   27.6000   35.5500 N   0  0  0  0  0  0  0  0  0  0  0  0
   27.7900   28.2700   35.6200 N   0  0  0  0  0  0  0  0  0  0  0  0
   28.5400   28.3000   34.5100 C   0  0  0  0  0  0  0  0  0  0  0  0
   29.7700   28.9400   34.5600 C   0  0  0  0  0  0  0  0  0  0  0  0
   30.7000   28.8900   33.5000 C   0  0  0  0  0  0  0  0  0  0  0  0
   30.3700   28.1400   32.3700 C   0  0  0  0  0  0  0  0  0  0  0  0
   29.1200   27.5200   32.2800 C   0  0  0  0  0  0  0  0  0  0  0  0
   28.2100   27.6100   33.3300 C   0  0  0  0  0  0  0  0  0  0  0  0
   26.9700   26.9700   33.3100 C   0  0  0  0  0  0  0  0  0  0  0  0
   26.5300   26.2400   32.2200 N   0  0  0  0  0  0  0  0  0  0  0  0
   30.1363   29.6960   35.7298 N   0  0  0  0  0  0  0  0  0  0  0  0
   31.0604   29.0654   36.6821 C   0  0  0  0  0  0  0  0  0  0  0  0
   31.7614   30.1215   37.5330 C   0  0  0  0  0  0  0  0  0  0  0  0
   30.7724   31.0482   38.0899 N   0  0  0  0  0  0  0  0  0  0  0  0
   30.9366   31.6120   39.4286 C   0  0  0  0  0  0  0  0  0  0  0  0
   29.6912   31.5072   37.2650 C   0  0  0  0  0  0  0  0  0  0  0  0
   29.4005   30.8875   36.1111 C   0  0  0  0  0  0  0  0  0  0  0  0
   28.3298   31.4373   35.2444 C   0  0  0  0  0  0  0  0  0  0  0  0
   27.0319   31.6252   35.7503 C   0  0  0  0  0  0  0  0  0  0  0  0
   26.0169   32.1138   34.9222 C   0  0  0  0  0  0  0  0  0  0  0  0
   26.2901   32.4233   33.5868 C   0  0  0  0  0  0  0  0  0  0  0  0
   27.5804   32.2481   33.0789 C   0  0  0  0  0  0  0  0  0  0  0  0
   28.5981   31.7599   33.9038 C   0  0  0  0  0  0  0  0  0  0  0  0
   25.3040   32.8951   32.7847 F   0  0  0  0  0  0  0  0  0  0  0  0
  1  2  1  0
  2  3  2  0
  2  4  1  0
  4  5  2  0
  5  6  1  0
  6  7  2  0
  7  8  1  0
  8  9  2  0
  9 10  1  0
 10 11  2  0
 11 12  1  0
 12 13  2  0
 13 14  1  0
  8 15  1  0
 15 16  1  0
 16 17  1  0
 17 18  1  0
 18 19  1  0
 18 20  1  0
 20 21  2  0
 21 22  1  0
 22 23  2  0
 23 24  1  0
 24 25  2  0
 25 26  1  0
 26 27  2  0
 25 28  1  0
 13  4  1  0
 21 15  1  0
 27 22  1  0
 12  7  1  0
M  END
>  <AAScore>  (1) 
114.5825473653346

>  <RootName>  (1) 
./4ZLY/04_DeltaGEst/trajectory_04/rank_01/lead_0070

$$$$
