confid_1
     RDKit          3D

 28 31  0  0  0  0  0  0  0  0999 V2000
   24.5700   26.8800   35.5900 N   0  0  0  0  0  0  0  0  0  0  0  0
   25.5000   26.4000   34.6900 C   0  0  0  0  0  0  0  0  0  0  0  0
   25.1700   25.5200   33.9100 O   0  0  0  0  0  0  0  0  0  0  0  0
   26.8400   27.0200   34.7400 C   0  0  0  0  0  0  0  0  0  0  0  0
   27.3800   27.2800   35.9400 N   0  0  0  0  0  0  0  0  0  0  0  0
   28.6200   27.7400   36.0300 N   0  0  0  0  0  0  0  0  0  0  0  0
   29.3800   28.0000   34.9600 C   0  0  0  0  0  0  0  0  0  0  0  0
   30.6700   28.5000   35.1300 C   0  0  0  0  0  0  0  0  0  0  0  0
   31.5400   28.6100   34.0300 C   0  0  0  0  0  0  0  0  0  0  0  0
   31.0900   28.2200   32.7700 C   0  0  0  0  0  0  0  0  0  0  0  0
   29.8000   27.7000   32.6000 C   0  0  0  0  0  0  0  0  0  0  0  0
   28.9600   27.5500   33.7100 C   0  0  0  0  0  0  0  0  0  0  0  0
   27.6600   27.0300   33.5900 C   0  0  0  0  0  0  0  0  0  0  0  0
   27.1600   26.7400   32.3400 N   0  0  0  0  0  0  0  0  0  0  0  0
   23.1481   26.7068   35.4600 C   0  0  0  0  0  0  0  0  0  0  0  0
   22.3897   26.6190   36.5865 N   0  0  0  0  0  0  0  0  0  0  0  0
   21.0390   26.4790   36.5423 C   0  0  0  0  0  0  0  0  0  0  0  0
   20.3771   26.4227   35.3105 C   0  0  0  0  0  0  0  0  0  0  0  0
   18.8693   26.2968   35.2524 C   0  0  0  0  0  0  0  0  0  0  0  0
   18.4202   25.6637   33.9908 N   0  0  0  0  0  0  0  0  0  0  0  0
   18.7699   24.2187   33.9498 C   0  0  0  0  0  0  0  0  0  0  0  0
   17.5153   23.3904   33.7032 C   0  0  0  0  0  0  0  0  0  0  0  0
   18.9102   26.4459   32.8241 C   0  0  2  0  0  0  0  0  0  0  0  0
   18.3411   25.9229   31.4949 C   0  0  0  0  0  0  0  0  0  0  0  0
   20.4206   26.5364   32.8272 C   0  0  0  0  0  0  0  0  0  0  0  0
   21.0598   26.6639   31.7468 O   0  0  0  0  0  0  0  0  0  0  0  0
   21.1250   26.5544   34.1268 C   0  0  0  0  0  0  0  0  0  0  0  0
   22.5183   26.6972   34.2032 C   0  0  0  0  0  0  0  0  0  0  0  0
  1  2  1  0
  2  3  2  0
  2  4  1  0
  4  5  2  0
  5  6  1  0
  6  7  2  0
  7  8  1  0
  8  9  2  0
  9 10  1  0
 10 11  2  0
 11 12  1  0
 12 13  2  0
 13 14  1  0
  1 15  1  0
 15 16  2  0
 16 17  1  0
 17 18  2  0
 18 19  1  0
 19 20  1  0
 20 21  1  0
 21 22  1  0
 20 23  1  0
 23 24  1  6
 23 25  1  0
 25 26  2  0
 25 27  1  0
 27 28  2  0
 13  4  1  0
 28 15  1  0
 12  7  1  0
 27 18  1  0
M  END
>  <AAScore>  (1) 
372.14424077231104

>  <RootName>  (1) 
./4ZLY/04_DeltaGEst/trajectory_05/rank_00/lead_0012

$$$$
