confid_2
     RDKit          3D

 27 29  0  0  0  0  0  0  0  0999 V2000
   24.5700   26.8800   35.5900 N   0  0  0  0  0  0  0  0  0  0  0  0
   25.5000   26.4000   34.6900 C   0  0  0  0  0  0  0  0  0  0  0  0
   25.1700   25.5200   33.9100 O   0  0  0  0  0  0  0  0  0  0  0  0
   26.8400   27.0200   34.7400 C   0  0  0  0  0  0  0  0  0  0  0  0
   27.3800   27.2800   35.9400 N   0  0  0  0  0  0  0  0  0  0  0  0
   28.6200   27.7400   36.0300 N   0  0  0  0  0  0  0  0  0  0  0  0
   29.3800   28.0000   34.9600 C   0  0  0  0  0  0  0  0  0  0  0  0
   30.6700   28.5000   35.1300 C   0  0  0  0  0  0  0  0  0  0  0  0
   31.5400   28.6100   34.0300 C   0  0  0  0  0  0  0  0  0  0  0  0
   31.0900   28.2200   32.7700 C   0  0  0  0  0  0  0  0  0  0  0  0
   29.8000   27.7000   32.6000 C   0  0  0  0  0  0  0  0  0  0  0  0
   28.9600   27.5500   33.7100 C   0  0  0  0  0  0  0  0  0  0  0  0
   27.6600   27.0300   33.5900 C   0  0  0  0  0  0  0  0  0  0  0  0
   27.1600   26.7400   32.3400 N   0  0  0  0  0  0  0  0  0  0  0  0
   33.2054   29.1443   34.2577 S   0  0  0  0  0  6  0  0  0  0  0  0
   33.2417   30.2020   35.3253 O   0  0  0  0  0  0  0  0  0  0  0  0
   33.7076   29.7518   32.9777 O   0  0  0  0  0  0  0  0  0  0  0  0
   34.2992   27.7919   34.7250 C   0  0  2  0  0  0  0  0  0  0  0  0
   34.1711   26.5620   33.8097 C   0  0  0  0  0  0  0  0  0  0  0  0
   33.6657   25.4326   34.6184 N   0  0  0  0  0  0  0  0  0  0  0  0
   34.1388   25.7658   35.9811 C   0  0  2  0  0  0  0  0  0  0  0  0
   33.4876   24.9887   37.1373 C   0  0  0  0  0  0  0  0  0  0  0  0
   34.0257   27.2747   36.1316 C   0  0  0  0  0  0  0  0  0  0  0  0
   32.1877   25.3041   34.4870 C   0  0  0  0  0  0  0  0  0  0  0  0
   31.7365   23.8304   34.5387 C   0  0  0  0  0  0  0  0  0  0  0  0
   32.3458   23.0251   33.3831 C   0  0  0  0  0  0  0  0  0  0  0  0
   30.2045   23.7494   34.4907 C   0  0  0  0  0  0  0  0  0  0  0  0
  1  2  1  0
  2  3  2  0
  2  4  1  0
  4  5  2  0
  5  6  1  0
  6  7  2  0
  7  8  1  0
  8  9  2  0
  9 10  1  0
 10 11  2  0
 11 12  1  0
 12 13  2  0
 13 14  1  0
  9 15  1  0
 15 16  2  0
 15 17  2  0
 18 15  1  6
 18 19  1  0
 19 20  1  0
 20 21  1  0
 21 22  1  1
 21 23  1  0
 20 24  1  0
 24 25  1  0
 25 26  1  0
 25 27  1  0
 13  4  1  0
 23 18  1  0
 12  7  1  0
M  END
>  <AAScore>  (1) 
703.6002763574153

>  <RootName>  (1) 
./4ZLY/04_DeltaGEst/trajectory_05/rank_01/lead_0005

$$$$
