confid_4
     RDKit          3D

 28 31  0  0  0  0  0  0  0  0999 V2000
   24.4800   26.1000   36.1300 N   0  0  0  0  0  0  0  0  0  0  0  0
   25.2500   26.2500   34.9900 C   0  0  0  0  0  0  0  0  0  0  0  0
   24.7400   25.7600   33.9900 O   0  0  0  0  0  0  0  0  0  0  0  0
   26.5900   26.8900   34.9600 C   0  0  0  0  0  0  0  0  0  0  0  0
   27.0600   27.2400   36.1600 N   0  0  0  0  0  0  0  0  0  0  0  0
   28.3000   27.7100   36.2400 N   0  0  0  0  0  0  0  0  0  0  0  0
   29.0500   27.9600   35.1500 C   0  0  0  0  0  0  0  0  0  0  0  0
   30.3400   28.4900   35.2600 C   0  0  0  0  0  0  0  0  0  0  0  0
   31.1100   28.8200   34.1400 C   0  0  0  0  0  0  0  0  0  0  0  0
   30.5200   28.6700   32.8800 C   0  0  0  0  0  0  0  0  0  0  0  0
   29.2900   28.0200   32.7700 C   0  0  0  0  0  0  0  0  0  0  0  0
   28.5200   27.7100   33.8900 C   0  0  0  0  0  0  0  0  0  0  0  0
   27.2700   27.0800   33.7600 C   0  0  0  0  0  0  0  0  0  0  0  0
   26.7500   26.8800   32.4900 N   0  0  0  0  0  0  0  0  0  0  0  0
   23.0440   26.0079   36.1554 C   0  0  0  0  0  0  0  0  0  0  0  0
   22.4472   25.3430   37.1778 N   0  0  0  0  0  0  0  0  0  0  0  0
   21.0988   25.2544   37.2892 C   0  0  0  0  0  0  0  0  0  0  0  0
   20.2660   25.8455   36.3287 C   0  0  0  0  0  0  0  0  0  0  0  0
   18.7792   25.8310   36.5369 C   0  0  0  0  0  0  0  0  0  0  0  0
   18.0733   25.8437   35.2567 N   0  0  0  0  0  0  0  0  0  0  0  0
   16.8086   25.1188   35.1040 C   0  0  0  0  0  0  0  0  0  0  0  0
   18.5495   26.6791   34.1884 C   0  0  0  0  0  0  0  0  0  0  0  0
   17.7740   26.9599   33.2314 O   0  0  0  0  0  0  0  0  0  0  0  0
   19.9561   27.2654   34.2136 C   0  0  0  0  0  0  0  0  0  0  0  0
   19.8571   28.7517   34.5976 C   0  0  0  0  0  0  0  0  0  0  0  0
   20.5560   27.1365   32.7890 C   0  0  0  0  0  0  0  0  0  0  0  0
   20.8408   26.5463   35.2450 C   0  0  0  0  0  0  0  0  0  0  0  0
   22.2473   26.6541   35.1965 C   0  0  0  0  0  0  0  0  0  0  0  0
  1  2  1  0
  2  3  2  0
  2  4  1  0
  4  5  2  0
  5  6  1  0
  6  7  2  0
  7  8  1  0
  8  9  2  0
  9 10  1  0
 10 11  2  0
 11 12  1  0
 12 13  2  0
 13 14  1  0
  1 15  1  0
 15 16  2  0
 16 17  1  0
 17 18  2  0
 18 19  1  0
 19 20  1  0
 20 21  1  0
 20 22  1  0
 22 23  2  0
 22 24  1  0
 24 25  1  0
 24 26  1  0
 24 27  1  0
 27 28  2  0
 13  4  1  0
 28 15  1  0
 12  7  1  0
 27 18  1  0
M  END
>  <AAScore>  (1) 
5543.361722266569

>  <RootName>  (1) 
./4ZLY/04_DeltaGEst/trajectory_00/rank_00/lead_0102

$$$$
