confid_11
     RDKit          3D

 26 29  0  0  0  0  0  0  0  0999 V2000
   25.3300   26.2600   34.7600 N   0  0  0  0  0  0  0  0  0  0  0  0
   26.1200   25.9200   33.6900 C   0  0  0  0  0  0  0  0  0  0  0  0
   25.6300   25.1100   32.9400 O   0  0  0  0  0  0  0  0  0  0  0  0
   27.5200   26.3800   33.4600 C   0  0  0  0  0  0  0  0  0  0  0  0
   28.1600   26.6300   34.6100 N   0  0  0  0  0  0  0  0  0  0  0  0
   29.4800   26.8500   34.5700 N   0  0  0  0  0  0  0  0  0  0  0  0
   30.1900   26.7800   33.4400 C   0  0  0  0  0  0  0  0  0  0  0  0
   31.5600   27.0500   33.5000 C   0  0  0  0  0  0  0  0  0  0  0  0
   32.2700   27.2400   32.3100 C   0  0  0  0  0  0  0  0  0  0  0  0
   31.6100   27.2500   31.0800 C   0  0  0  0  0  0  0  0  0  0  0  0
   30.2700   26.8700   31.0600 C   0  0  0  0  0  0  0  0  0  0  0  0
   29.5100   26.6900   32.2300 C   0  0  0  0  0  0  0  0  0  0  0  0
   28.1400   26.4100   32.2000 C   0  0  0  0  0  0  0  0  0  0  0  0
   27.4300   26.1300   31.0500 N   0  0  0  0  0  0  0  0  0  0  0  0
   26.4664   27.1094   30.5314 C   0  0  0  0  0  0  0  0  0  0  0  0
   26.5329   27.2172   28.9904 C   0  0  0  0  0  0  0  0  0  0  0  0
   27.2384   26.0823   28.3482 N   0  0  0  0  0  0  0  0  0  0  0  0
   26.9111   26.0256   26.9095 C   0  0  0  0  0  0  0  0  0  0  0  0
   27.9069   25.1808   26.1711 C   0  0  0  0  0  0  0  0  0  0  0  0
   29.2536   25.4463   26.0054 C   0  0  0  0  0  0  0  0  0  0  0  0
   29.8111   24.4542   25.3464 O   0  0  0  0  0  0  0  0  0  0  0  0
   28.8891   23.5544   25.0831 C   0  0  0  0  0  0  0  0  0  0  0  0
   29.1907   22.0565   24.2265 Cl  0  0  0  0  0  0  0  0  0  0  0  0
   27.6673   23.9564   25.5819 C   0  0  0  0  0  0  0  0  0  0  0  0
   26.9158   24.8137   29.0291 C   0  0  0  0  0  0  0  0  0  0  0  0
   27.5859   24.8199   30.4039 C   0  0  0  0  0  0  0  0  0  0  0  0
  1  2  1  0
  2  3  2  0
  2  4  1  0
  4  5  2  0
  5  6  1  0
  6  7  2  0
  7  8  1  0
  8  9  2  0
  9 10  1  0
 10 11  2  0
 11 12  1  0
 12 13  2  0
 13 14  1  0
 14 15  1  0
 15 16  1  0
 16 17  1  0
 17 18  1  0
 18 19  1  0
 19 20  2  0
 20 21  1  0
 21 22  1  0
 22 23  1  0
 22 24  2  0
 17 25  1  0
 25 26  1  0
 13  4  1  0
 26 14  1  0
 12  7  1  0
 24 19  1  0
M  END
>  <AAScore>  (1) 
-2.056906454566477

>  <RootName>  (1) 
./4ZLY/04_DeltaGEst/trajectory_03/rank_01/lead_0308

$$$$
