confid_11
     RDKit          3D

 30 33  0  0  0  0  0  0  0  0999 V2000
   24.5500   26.3900   36.2500 N   0  0  0  0  0  0  0  0  0  0  0  0
   25.6000   26.1300   35.4000 C   0  0  0  0  0  0  0  0  0  0  0  0
   25.4300   25.4300   34.4200 O   0  0  0  0  0  0  0  0  0  0  0  0
   26.9800   26.6300   35.7100 C   0  0  0  0  0  0  0  0  0  0  0  0
   27.3200   26.8200   36.9800 N   0  0  0  0  0  0  0  0  0  0  0  0
   28.4700   27.4000   37.3100 N   0  0  0  0  0  0  0  0  0  0  0  0
   29.4000   27.6300   36.3700 C   0  0  0  0  0  0  0  0  0  0  0  0
   30.6600   28.0500   36.8000 C   0  0  0  0  0  0  0  0  0  0  0  0
   31.5700   28.3600   35.7800 C   0  0  0  0  0  0  0  0  0  0  0  0
   31.3700   28.1000   34.4300 C   0  0  0  0  0  0  0  0  0  0  0  0
   30.1200   27.5900   34.0500 C   0  0  0  0  0  0  0  0  0  0  0  0
   29.1500   27.3400   35.0300 C   0  0  0  0  0  0  0  0  0  0  0  0
   27.8800   26.8900   34.6600 C   0  0  0  0  0  0  0  0  0  0  0  0
   27.4800   26.6100   33.3700 N   0  0  0  0  0  0  0  0  0  0  0  0
   23.1412   26.1866   35.8741 C   0  0  0  0  0  0  0  0  0  0  0  0
   22.7354   24.7071   36.0028 C   0  0  0  0  0  0  0  0  0  0  0  0
   22.7163   24.2557   37.4654 C   0  0  0  0  0  0  0  0  0  0  0  0
   21.8907   25.1635   38.2700 N   0  0  0  0  0  0  0  0  0  0  0  0
   21.1026   24.6238   39.3433 C   0  0  0  0  0  0  0  0  0  0  0  0
   20.2586   23.7188   39.0987 O   0  0  0  0  0  0  0  0  0  0  0  0
   21.3531   25.0284   40.7680 C   0  0  0  0  0  0  0  0  0  0  0  0
   22.3546   24.0948   41.3791 C   0  0  0  0  0  0  0  0  0  0  0  0
   23.7307   24.3247   41.2331 C   0  0  0  0  0  0  0  0  0  0  0  0
   24.6380   23.4049   41.7593 C   0  0  0  0  0  0  0  0  0  0  0  0
   24.1706   22.2651   42.4190 C   0  0  0  0  0  0  0  0  0  0  0  0
   22.7891   22.0641   42.5471 C   0  0  0  0  0  0  0  0  0  0  0  0
   22.2518   20.8295   43.2047 C   0  0  0  0  0  0  0  0  0  0  0  0
   21.9238   22.9705   42.0139 N   0  0  0  0  0  0  0  0  0  0  0  0
   22.1469   26.6064   38.1946 C   0  0  0  0  0  0  0  0  0  0  0  0
   22.2092   27.0694   36.7309 C   0  0  0  0  0  0  0  0  0  0  0  0
  1  2  1  0
  2  3  2  0
  2  4  1  0
  4  5  2  0
  5  6  1  0
  6  7  2  0
  7  8  1  0
  8  9  2  0
  9 10  1  0
 10 11  2  0
 11 12  1  0
 12 13  2  0
 13 14  1  0
  1 15  1  0
 15 16  1  0
 16 17  1  0
 17 18  1  0
 18 19  1  0
 19 20  2  0
 19 21  1  0
 21 22  1  0
 22 23  2  0
 23 24  1  0
 24 25  2  0
 25 26  1  0
 26 27  1  0
 26 28  2  0
 18 29  1  0
 29 30  1  0
 13  4  1  0
 30 15  1  0
 12  7  1  0
 28 22  1  0
M  END
>  <AAScore>  (1) 
6191.931633610471

>  <RootName>  (1) 
./4ZLY/04_DeltaGEst/trajectory_01/rank_00/lead_0190

$$$$
