confid_4
     RDKit          3D

 27 30  0  0  0  0  0  0  0  0999 V2000
   24.5500   26.3900   36.2500 N   0  0  0  0  0  0  0  0  0  0  0  0
   25.6000   26.1300   35.4000 C   0  0  0  0  0  0  0  0  0  0  0  0
   25.4300   25.4300   34.4200 O   0  0  0  0  0  0  0  0  0  0  0  0
   26.9800   26.6300   35.7100 C   0  0  0  0  0  0  0  0  0  0  0  0
   27.3200   26.8200   36.9800 N   0  0  0  0  0  0  0  0  0  0  0  0
   28.4700   27.4000   37.3100 N   0  0  0  0  0  0  0  0  0  0  0  0
   29.4000   27.6300   36.3700 C   0  0  0  0  0  0  0  0  0  0  0  0
   30.6600   28.0500   36.8000 C   0  0  0  0  0  0  0  0  0  0  0  0
   31.5700   28.3600   35.7800 C   0  0  0  0  0  0  0  0  0  0  0  0
   31.3700   28.1000   34.4300 C   0  0  0  0  0  0  0  0  0  0  0  0
   30.1200   27.5900   34.0500 C   0  0  0  0  0  0  0  0  0  0  0  0
   29.1500   27.3400   35.0300 C   0  0  0  0  0  0  0  0  0  0  0  0
   27.8800   26.8900   34.6600 C   0  0  0  0  0  0  0  0  0  0  0  0
   27.4800   26.6100   33.3700 N   0  0  0  0  0  0  0  0  0  0  0  0
   30.9752   28.2724   38.1899 N   0  0  0  0  0  0  0  0  0  0  0  0
   30.9927   27.1194   39.1049 C   0  0  0  0  0  0  0  0  0  0  0  0
   30.0146   27.3235   40.2723 C   0  0  0  0  0  0  0  0  0  0  0  0
   30.6394   28.0860   41.4530 C   0  0  0  0  0  0  0  0  0  0  0  0
   31.4518   29.2381   41.0289 N   0  0  0  0  0  0  0  0  0  0  0  0
   32.6130   29.5999   41.8094 C   0  0  0  0  0  0  0  0  0  0  0  0
   32.6788   29.2391   43.0174 O   0  0  0  0  0  0  0  0  0  0  0  0
   33.8008   30.3002   41.1754 C   0  0  0  0  0  0  0  0  0  0  0  0
   34.8005   30.9229   42.1547 C   0  0  0  0  0  0  0  0  0  0  0  0
   35.8647   29.9369   41.6926 C   0  0  0  0  0  0  0  0  0  0  0  0
   34.8750   29.3174   40.7149 C   0  0  0  0  0  0  0  0  0  0  0  0
   31.0083   30.0710   39.9034 C   0  0  0  0  0  0  0  0  0  0  0  0
   31.5921   29.5467   38.5889 C   0  0  0  0  0  0  0  0  0  0  0  0
  1  2  1  0
  2  3  2  0
  2  4  1  0
  4  5  2  0
  5  6  1  0
  6  7  2  0
  7  8  1  0
  8  9  2  0
  9 10  1  0
 10 11  2  0
 11 12  1  0
 12 13  2  0
 13 14  1  0
  8 15  1  0
 15 16  1  0
 16 17  1  0
 17 18  1  0
 18 19  1  0
 19 20  1  0
 20 21  2  0
 20 22  1  0
 22 23  1  0
 23 24  1  0
 24 25  1  0
 19 26  1  0
 26 27  1  0
 13  4  1  0
 27 15  1  0
 12  7  1  0
 25 22  1  0
M  END
>  <AAScore>  (1) 
1048.7163780550643

>  <RootName>  (1) 
./4ZLY/04_DeltaGEst/trajectory_01/rank_01/lead_0045

$$$$
