confid_9
     RDKit          3D

 28 32  0  0  0  0  0  0  0  0999 V2000
   24.2000   26.2400   35.6900 N   0  0  0  0  0  0  0  0  0  0  0  0
   24.8500   26.2800   34.4800 C   0  0  0  0  0  0  0  0  0  0  0  0
   24.3100   25.7400   33.5400 O   0  0  0  0  0  0  0  0  0  0  0  0
   26.1800   26.9700   34.4700 C   0  0  0  0  0  0  0  0  0  0  0  0
   26.6500   27.6000   35.5500 N   0  0  0  0  0  0  0  0  0  0  0  0
   27.7900   28.2700   35.6200 N   0  0  0  0  0  0  0  0  0  0  0  0
   28.5400   28.3000   34.5100 C   0  0  0  0  0  0  0  0  0  0  0  0
   29.7700   28.9400   34.5600 C   0  0  0  0  0  0  0  0  0  0  0  0
   30.7000   28.8900   33.5000 C   0  0  0  0  0  0  0  0  0  0  0  0
   30.3700   28.1400   32.3700 C   0  0  0  0  0  0  0  0  0  0  0  0
   29.1200   27.5200   32.2800 C   0  0  0  0  0  0  0  0  0  0  0  0
   28.2100   27.6100   33.3300 C   0  0  0  0  0  0  0  0  0  0  0  0
   26.9700   26.9700   33.3100 C   0  0  0  0  0  0  0  0  0  0  0  0
   26.5300   26.2400   32.2200 N   0  0  0  0  0  0  0  0  0  0  0  0
   22.8154   25.8932   35.8842 C   0  0  0  0  0  0  0  0  0  0  0  0
   22.3418   25.7811   37.2197 N   0  0  0  0  0  0  0  0  0  0  0  0
   21.0435   25.4601   37.6090 C   0  0  0  0  0  0  0  0  0  0  0  0
   20.2531   25.2598   36.5377 C   0  0  0  0  0  0  0  0  0  0  0  0
   19.4250   25.0500   35.4219 C   0  0  2  0  0  0  0  0  0  0  0  0
   18.5124   26.0526   35.1531 F   0  0  0  0  0  0  0  0  0  0  0  0
   19.0309   23.6608   35.0698 N   0  0  0  0  0  0  0  0  0  0  0  0
   18.9161   23.4691   33.6000 C   0  0  0  0  0  0  0  0  0  0  0  0
   19.9932   22.5310   33.0391 C   0  0  0  0  0  0  0  0  0  0  0  0
   19.9406   21.1467   33.7097 C   0  0  0  0  0  0  0  0  0  0  0  0
   19.4499   21.2062   35.1677 C   0  0  0  0  0  0  0  0  0  0  0  0
   19.7422   22.5741   35.7933 C   0  0  0  0  0  0  0  0  0  0  0  0
   20.7622   25.3857   35.1833 C   0  0  0  0  0  0  0  0  0  0  0  0
   21.9842   25.6928   34.7743 N   0  0  0  0  0  0  0  0  0  0  0  0
  1  2  1  0
  2  3  2  0
  2  4  1  0
  4  5  2  0
  5  6  1  0
  6  7  2  0
  7  8  1  0
  8  9  2  0
  9 10  1  0
 10 11  2  0
 11 12  1  0
 12 13  2  0
 13 14  1  0
  1 15  1  0
 15 16  2  0
 16 17  1  0
 17 18  2  0
 18 19  1  0
 19 20  1  6
 19 21  1  0
 21 22  1  0
 22 23  1  0
 23 24  1  0
 24 25  1  0
 25 26  1  0
 19 27  1  0
 27 28  2  0
 13  4  1  0
 28 15  1  0
 12  7  1  0
 27 18  1  0
 26 21  1  0
M  END
>  <AAScore>  (1) 
2736.762278152833

>  <RootName>  (1) 
./4ZLY/04_DeltaGEst/trajectory_04/rank_00/lead_0027

$$$$
