confid_19
     RDKit          3D

 29 32  0  0  0  0  0  0  0  0999 V2000
   24.6900   26.1200   35.5300 N   0  0  0  0  0  0  0  0  0  0  0  0
   25.6600   25.6700   34.6600 C   0  0  0  0  0  0  0  0  0  0  0  0
   25.2400   25.0100   33.7200 O   0  0  0  0  0  0  0  0  0  0  0  0
   27.0300   26.2200   34.8800 C   0  0  0  0  0  0  0  0  0  0  0  0
   27.3500   26.7300   36.0700 N   0  0  0  0  0  0  0  0  0  0  0  0
   28.5700   27.1800   36.3300 N   0  0  0  0  0  0  0  0  0  0  0  0
   29.5300   27.1100   35.3900 C   0  0  0  0  0  0  0  0  0  0  0  0
   30.8300   27.5700   35.6500 C   0  0  0  0  0  0  0  0  0  0  0  0
   31.8500   27.5400   34.6900 C   0  0  0  0  0  0  0  0  0  0  0  0
   31.5100   27.1200   33.4000 C   0  0  0  0  0  0  0  0  0  0  0  0
   30.2200   26.6300   33.1100 C   0  0  0  0  0  0  0  0  0  0  0  0
   29.2400   26.6600   34.1000 C   0  0  0  0  0  0  0  0  0  0  0  0
   27.9300   26.2600   33.8100 C   0  0  0  0  0  0  0  0  0  0  0  0
   27.5200   25.7100   32.6100 N   0  0  0  0  0  0  0  0  0  0  0  0
   23.2955   26.2426   35.1792 C   0  0  0  0  0  0  0  0  0  0  0  0
   22.9656   26.5632   33.9051 N   0  0  0  0  0  0  0  0  0  0  0  0
   21.6892   26.7558   33.5093 C   0  0  0  0  0  0  0  0  0  0  0  0
   20.6268   26.6651   34.4201 C   0  0  0  0  0  0  0  0  0  0  0  0
   19.2507   26.9811   33.8671 C   0  0  0  0  0  0  0  0  0  0  0  0
   18.1979   26.0457   34.3681 C   0  0  0  0  0  0  0  0  0  0  0  0
   17.7377   25.1570   33.6001 O   0  0  0  0  0  0  0  0  0  0  0  0
   17.7238   26.1578   35.7172 N   0  0  0  0  0  0  0  0  0  0  0  0
   16.5306   25.4201   36.1554 C   0  0  0  0  0  0  0  0  0  0  0  0
   15.2669   26.0818   35.6165 C   0  0  0  0  0  0  0  0  0  0  0  0
   18.5050   26.9500   36.6697 C   0  0  0  0  0  0  0  0  0  0  0  0
   19.8661   26.2942   36.9048 C   0  0  0  0  0  0  0  0  0  0  0  0
   20.9220   26.3835   35.7945 C   0  0  0  0  0  0  0  0  0  0  0  0
   22.2770   26.0932   36.1486 C   0  0  0  0  0  0  0  0  0  0  0  0
   22.6544   25.6503   37.5502 C   0  0  0  0  0  0  0  0  0  0  0  0
  1  2  1  0
  2  3  2  0
  2  4  1  0
  4  5  2  0
  5  6  1  0
  6  7  2  0
  7  8  1  0
  8  9  2  0
  9 10  1  0
 10 11  2  0
 11 12  1  0
 12 13  2  0
 13 14  1  0
  1 15  1  0
 15 16  2  0
 16 17  1  0
 17 18  2  0
 18 19  1  0
 19 20  1  0
 20 21  2  0
 20 22  1  0
 22 23  1  0
 23 24  1  0
 22 25  1  0
 25 26  1  0
 26 27  1  0
 27 28  2  0
 28 29  1  0
 13  4  1  0
 28 15  1  0
 12  7  1  0
 27 18  1  0
M  END
>  <AAScore>  (1) 
2315.7527530230363

>  <RootName>  (1) 
./4ZLY/04_DeltaGEst/trajectory_02/rank_00/lead_0467

$$$$
