confid_19
     RDKit          3D

 28 31  0  0  0  0  0  0  0  0999 V2000
   24.2000   26.2400   35.6900 N   0  0  0  0  0  0  0  0  0  0  0  0
   24.8500   26.2800   34.4800 C   0  0  0  0  0  0  0  0  0  0  0  0
   24.3100   25.7400   33.5400 O   0  0  0  0  0  0  0  0  0  0  0  0
   26.1800   26.9700   34.4700 C   0  0  0  0  0  0  0  0  0  0  0  0
   26.6500   27.6000   35.5500 N   0  0  0  0  0  0  0  0  0  0  0  0
   27.7900   28.2700   35.6200 N   0  0  0  0  0  0  0  0  0  0  0  0
   28.5400   28.3000   34.5100 C   0  0  0  0  0  0  0  0  0  0  0  0
   29.7700   28.9400   34.5600 C   0  0  0  0  0  0  0  0  0  0  0  0
   30.7000   28.8900   33.5000 C   0  0  0  0  0  0  0  0  0  0  0  0
   30.3700   28.1400   32.3700 C   0  0  0  0  0  0  0  0  0  0  0  0
   29.1200   27.5200   32.2800 C   0  0  0  0  0  0  0  0  0  0  0  0
   28.2100   27.6100   33.3300 C   0  0  0  0  0  0  0  0  0  0  0  0
   26.9700   26.9700   33.3100 C   0  0  0  0  0  0  0  0  0  0  0  0
   26.5300   26.2400   32.2200 N   0  0  0  0  0  0  0  0  0  0  0  0
   30.1405   29.6774   35.7362 N   0  0  0  0  0  0  0  0  0  0  0  0
   31.2078   29.1739   36.6080 C   0  0  0  0  0  0  0  0  0  0  0  0
   32.2380   30.2782   36.8634 C   0  0  0  0  0  0  0  0  0  0  0  0
   31.5856   31.5589   37.1653 N   0  0  0  0  0  0  0  0  0  0  0  0
   32.3950   32.6842   37.5332 C   0  0  0  0  0  0  0  0  0  0  0  0
   32.9578   32.7334   38.8164 C   0  0  0  0  0  0  0  0  0  0  0  0
   33.7281   33.8296   39.2074 C   0  0  0  0  0  0  0  0  0  0  0  0
   33.9393   34.8868   38.3216 C   0  0  0  0  0  0  0  0  0  0  0  0
   33.3879   34.8502   37.0374 C   0  0  0  0  0  0  0  0  0  0  0  0
   33.6010   35.8979   36.2012 F   0  0  0  0  0  0  0  0  0  0  0  0
   32.6242   33.7413   36.6234 C   0  0  0  0  0  0  0  0  0  0  0  0
   32.0194   33.7123   35.2444 C   0  0  0  0  0  0  0  0  0  0  0  0
   30.1235   31.6653   37.2209 C   0  0  0  0  0  0  0  0  0  0  0  0
   29.5016   30.9742   36.0028 C   0  0  0  0  0  0  0  0  0  0  0  0
  1  2  1  0
  2  3  2  0
  2  4  1  0
  4  5  2  0
  5  6  1  0
  6  7  2  0
  7  8  1  0
  8  9  2  0
  9 10  1  0
 10 11  2  0
 11 12  1  0
 12 13  2  0
 13 14  1  0
  8 15  1  0
 15 16  1  0
 16 17  1  0
 17 18  1  0
 18 19  1  0
 19 20  2  0
 20 21  1  0
 21 22  2  0
 22 23  1  0
 23 24  1  0
 23 25  2  0
 25 26  1  0
 18 27  1  0
 27 28  1  0
 13  4  1  0
 28 15  1  0
 12  7  1  0
 25 19  1  0
M  END
>  <AAScore>  (1) 
-8.111543036809428

>  <RootName>  (1) 
./4ZLY/04_DeltaGEst/trajectory_04/rank_01/lead_0187

$$$$
