confid_15
     RDKit          3D

 28 31  0  0  0  0  0  0  0  0999 V2000
   24.4800   26.1000   36.1300 N   0  0  0  0  0  0  0  0  0  0  0  0
   25.2500   26.2500   34.9900 C   0  0  0  0  0  0  0  0  0  0  0  0
   24.7400   25.7600   33.9900 O   0  0  0  0  0  0  0  0  0  0  0  0
   26.5900   26.8900   34.9600 C   0  0  0  0  0  0  0  0  0  0  0  0
   27.0600   27.2400   36.1600 N   0  0  0  0  0  0  0  0  0  0  0  0
   28.3000   27.7100   36.2400 N   0  0  0  0  0  0  0  0  0  0  0  0
   29.0500   27.9600   35.1500 C   0  0  0  0  0  0  0  0  0  0  0  0
   30.3400   28.4900   35.2600 C   0  0  0  0  0  0  0  0  0  0  0  0
   31.1100   28.8200   34.1400 C   0  0  0  0  0  0  0  0  0  0  0  0
   30.5200   28.6700   32.8800 C   0  0  0  0  0  0  0  0  0  0  0  0
   29.2900   28.0200   32.7700 C   0  0  0  0  0  0  0  0  0  0  0  0
   28.5200   27.7100   33.8900 C   0  0  0  0  0  0  0  0  0  0  0  0
   27.2700   27.0800   33.7600 C   0  0  0  0  0  0  0  0  0  0  0  0
   26.7500   26.8800   32.4900 N   0  0  0  0  0  0  0  0  0  0  0  0
   23.4243   25.1379   36.3122 C   0  0  0  0  0  0  0  0  0  0  0  0
   22.3750   25.4580   37.1184 N   0  0  0  0  0  0  0  0  0  0  0  0
   21.3513   24.5952   37.3532 C   0  0  0  0  0  0  0  0  0  0  0  0
   21.3498   23.3271   36.7597 C   0  0  0  0  0  0  0  0  0  0  0  0
   20.2509   22.3379   37.0467 C   0  0  0  0  0  0  0  0  0  0  0  0
   19.9826   21.5006   35.8650 N   0  0  0  0  0  0  0  0  0  0  0  0
   21.1111   21.0405   35.0815 C   0  0  0  0  0  0  0  0  0  0  0  0
   20.9619   20.1773   34.1753 O   0  0  0  0  0  0  0  0  0  0  0  0
   22.4922   21.5659   35.3597 C   0  0  0  0  0  0  0  0  0  0  0  0
   22.4317   22.9536   35.9439 C   0  0  0  0  0  0  0  0  0  0  0  0
   23.4823   23.8575   35.7344 C   0  0  0  0  0  0  0  0  0  0  0  0
   18.5872   21.1383   35.5337 C   0  0  0  0  0  0  0  0  0  0  0  0
   18.3457   19.6333   35.7041 C   0  0  0  0  0  0  0  0  0  0  0  0
   18.2068   21.6206   34.1287 C   0  0  0  0  0  0  0  0  0  0  0  0
  1  2  1  0
  2  3  2  0
  2  4  1  0
  4  5  2  0
  5  6  1  0
  6  7  2  0
  7  8  1  0
  8  9  2  0
  9 10  1  0
 10 11  2  0
 11 12  1  0
 12 13  2  0
 13 14  1  0
  1 15  1  0
 15 16  2  0
 16 17  1  0
 17 18  2  0
 18 19  1  0
 19 20  1  0
 20 21  1  0
 21 22  2  0
 21 23  1  0
 23 24  1  0
 24 25  2  0
 20 26  1  0
 26 27  1  0
 26 28  1  0
 13  4  1  0
 25 15  1  0
 12  7  1  0
 24 18  1  0
M  END
>  <AAScore>  (1) 
306.45101123416686

>  <RootName>  (1) 
./4ZLY/04_DeltaGEst/trajectory_00/rank_01/lead_0367

$$$$
