confid_13
     RDKit          3D

 28 31  0  0  0  0  0  0  0  0999 V2000
   24.5700   26.8800   35.5900 N   0  0  0  0  0  0  0  0  0  0  0  0
   25.5000   26.4000   34.6900 C   0  0  0  0  0  0  0  0  0  0  0  0
   25.1700   25.5200   33.9100 O   0  0  0  0  0  0  0  0  0  0  0  0
   26.8400   27.0200   34.7400 C   0  0  0  0  0  0  0  0  0  0  0  0
   27.3800   27.2800   35.9400 N   0  0  0  0  0  0  0  0  0  0  0  0
   28.6200   27.7400   36.0300 N   0  0  0  0  0  0  0  0  0  0  0  0
   29.3800   28.0000   34.9600 C   0  0  0  0  0  0  0  0  0  0  0  0
   30.6700   28.5000   35.1300 C   0  0  0  0  0  0  0  0  0  0  0  0
   31.5400   28.6100   34.0300 C   0  0  0  0  0  0  0  0  0  0  0  0
   31.0900   28.2200   32.7700 C   0  0  0  0  0  0  0  0  0  0  0  0
   29.8000   27.7000   32.6000 C   0  0  0  0  0  0  0  0  0  0  0  0
   28.9600   27.5500   33.7100 C   0  0  0  0  0  0  0  0  0  0  0  0
   27.6600   27.0300   33.5900 C   0  0  0  0  0  0  0  0  0  0  0  0
   27.1600   26.7400   32.3400 N   0  0  0  0  0  0  0  0  0  0  0  0
   23.1561   26.6473   35.4785 C   0  0  0  0  0  0  0  0  0  0  0  0
   22.4557   26.4740   36.5606 N   0  0  0  0  0  0  0  0  0  0  0  0
   21.0305   26.2985   36.5451 C   0  0  0  0  0  0  0  0  0  0  0  0
   20.3647   26.1472   35.3868 C   0  0  0  0  0  0  0  0  0  0  0  0
   18.8737   26.3405   35.3234 C   0  0  0  0  0  0  0  0  0  0  0  0
   18.5380   27.5697   34.5610 N   0  0  0  0  0  0  0  0  0  0  0  0
   18.4469   28.7265   35.4704 C   0  0  0  0  0  0  0  0  0  0  0  0
   19.4521   27.8638   33.4134 C   0  0  2  0  0  0  0  0  0  0  0  0
   18.6356   28.4411   32.2521 C   0  0  0  0  0  0  0  0  0  0  0  0
   20.2256   26.6105   32.9295 C   0  0  0  0  0  0  0  0  0  0  0  0
   21.1025   26.0015   34.0651 C   0  0  2  0  0  0  0  0  0  0  0  0
   21.3351   24.5050   33.7871 C   0  0  0  0  0  0  0  0  0  0  0  0
   22.4617   26.6704   34.1699 C   0  0  0  0  0  0  0  0  0  0  0  0
   23.0217   27.1762   33.1593 O   0  0  0  0  0  0  0  0  0  0  0  0
  1  2  1  0
  2  3  2  0
  2  4  1  0
  4  5  2  0
  5  6  1  0
  6  7  2  0
  7  8  1  0
  8  9  2  0
  9 10  1  0
 10 11  2  0
 11 12  1  0
 12 13  2  0
 13 14  1  0
  1 15  1  0
 15 16  2  0
 16 17  1  0
 17 18  2  0
 18 19  1  0
 19 20  1  0
 20 21  1  0
 20 22  1  0
 22 23  1  6
 22 24  1  0
 24 25  1  0
 25 26  1  6
 25 27  1  0
 27 28  2  0
 13  4  1  0
 27 15  1  0
 12  7  1  0
 25 18  1  0
M  END
>  <AAScore>  (1) 
2412.421857976304

>  <RootName>  (1) 
./4ZLY/04_DeltaGEst/trajectory_05/rank_00/lead_0311

$$$$
