confid_10
     RDKit          3D

 27 30  0  0  0  0  0  0  0  0999 V2000
   24.2000   26.2400   35.6900 N   0  0  0  0  0  0  0  0  0  0  0  0
   24.8500   26.2800   34.4800 C   0  0  0  0  0  0  0  0  0  0  0  0
   24.3100   25.7400   33.5400 O   0  0  0  0  0  0  0  0  0  0  0  0
   26.1800   26.9700   34.4700 C   0  0  0  0  0  0  0  0  0  0  0  0
   26.6500   27.6000   35.5500 N   0  0  0  0  0  0  0  0  0  0  0  0
   27.7900   28.2700   35.6200 N   0  0  0  0  0  0  0  0  0  0  0  0
   28.5400   28.3000   34.5100 C   0  0  0  0  0  0  0  0  0  0  0  0
   29.7700   28.9400   34.5600 C   0  0  0  0  0  0  0  0  0  0  0  0
   30.7000   28.8900   33.5000 C   0  0  0  0  0  0  0  0  0  0  0  0
   30.3700   28.1400   32.3700 C   0  0  0  0  0  0  0  0  0  0  0  0
   29.1200   27.5200   32.2800 C   0  0  0  0  0  0  0  0  0  0  0  0
   28.2100   27.6100   33.3300 C   0  0  0  0  0  0  0  0  0  0  0  0
   26.9700   26.9700   33.3100 C   0  0  0  0  0  0  0  0  0  0  0  0
   26.5300   26.2400   32.2200 N   0  0  0  0  0  0  0  0  0  0  0  0
   23.1490   25.3092   36.0063 C   0  0  0  0  0  0  0  0  0  0  0  0
   22.0909   25.7294   36.7671 N   0  0  0  0  0  0  0  0  0  0  0  0
   21.0599   24.8992   37.1008 C   0  0  0  0  0  0  0  0  0  0  0  0
   21.1013   23.5826   36.6605 C   0  0  0  0  0  0  0  0  0  0  0  0
   20.1665   22.5969   36.8868 O   0  0  0  0  0  0  0  0  0  0  0  0
   20.5735   21.3686   36.2709 C   0  0  2  0  0  0  0  0  0  0  0  0
   19.5240   20.9242   35.2677 C   0  0  0  0  0  0  0  0  0  0  0  0
   19.7315   19.7197   34.3946 C   0  0  0  0  0  0  0  0  0  0  0  0
   18.4758   21.5463   35.1694 O   0  0  0  0  0  0  0  0  0  0  0  0
   20.7464   20.3062   37.3653 C   0  0  0  0  0  0  0  0  0  0  0  0
   21.9364   21.6985   35.5694 C   0  0  0  0  0  0  0  0  0  0  0  0
   22.1450   23.1281   35.9177 C   0  0  0  0  0  0  0  0  0  0  0  0
   23.2009   23.9676   35.5688 C   0  0  0  0  0  0  0  0  0  0  0  0
  1  2  1  0
  2  3  2  0
  2  4  1  0
  4  5  2  0
  5  6  1  0
  6  7  2  0
  7  8  1  0
  8  9  2  0
  9 10  1  0
 10 11  2  0
 11 12  1  0
 12 13  2  0
 13 14  1  0
  1 15  1  0
 15 16  2  0
 16 17  1  0
 17 18  2  0
 18 19  1  0
 19 20  1  0
 20 21  1  0
 21 22  1  0
 21 23  2  0
 20 24  1  1
 20 25  1  0
 25 26  1  0
 26 27  2  0
 13  4  1  0
 27 15  1  0
 12  7  1  0
 26 18  1  0
M  END
>  <AAScore>  (1) 
1316.3871633965286

>  <RootName>  (1) 
./4ZLY/04_DeltaGEst/trajectory_04/rank_00/lead_0350

$$$$
