confid_14
     RDKit          3D

 27 30  0  0  0  0  0  0  0  0999 V2000
   24.6900   26.1200   35.5300 N   0  0  0  0  0  0  0  0  0  0  0  0
   25.6600   25.6700   34.6600 C   0  0  0  0  0  0  0  0  0  0  0  0
   25.2400   25.0100   33.7200 O   0  0  0  0  0  0  0  0  0  0  0  0
   27.0300   26.2200   34.8800 C   0  0  0  0  0  0  0  0  0  0  0  0
   27.3500   26.7300   36.0700 N   0  0  0  0  0  0  0  0  0  0  0  0
   28.5700   27.1800   36.3300 N   0  0  0  0  0  0  0  0  0  0  0  0
   29.5300   27.1100   35.3900 C   0  0  0  0  0  0  0  0  0  0  0  0
   30.8300   27.5700   35.6500 C   0  0  0  0  0  0  0  0  0  0  0  0
   31.8500   27.5400   34.6900 C   0  0  0  0  0  0  0  0  0  0  0  0
   31.5100   27.1200   33.4000 C   0  0  0  0  0  0  0  0  0  0  0  0
   30.2200   26.6300   33.1100 C   0  0  0  0  0  0  0  0  0  0  0  0
   29.2400   26.6600   34.1000 C   0  0  0  0  0  0  0  0  0  0  0  0
   27.9300   26.2600   33.8100 C   0  0  0  0  0  0  0  0  0  0  0  0
   27.5200   25.7100   32.6100 N   0  0  0  0  0  0  0  0  0  0  0  0
   23.2626   26.0380   35.3400 C   0  0  0  0  0  0  0  0  0  0  0  0
   22.4307   26.4392   36.4200 N   0  0  0  0  0  0  0  0  0  0  0  0
   21.0386   26.4418   36.4293 C   0  0  0  0  0  0  0  0  0  0  0  0
   20.5470   26.0062   35.2548 C   0  0  0  0  0  0  0  0  0  0  0  0
   20.0276   25.5541   34.0355 C   0  0  2  0  0  0  0  0  0  0  0  0
   19.4731   26.5512   33.2555 F   0  0  0  0  0  0  0  0  0  0  0  0
   19.3807   24.1632   34.0612 C   0  0  0  0  0  0  0  0  0  0  0  0
   19.4453   23.4825   32.6864 C   0  0  0  0  0  0  0  0  0  0  0  0
   18.7142   24.2622   31.6620 N   0  0  0  0  0  0  0  0  0  0  0  0
   17.2750   23.9465   31.6819 C   0  0  0  0  0  0  0  0  0  0  0  0
   19.2578   23.9797   30.3243 C   0  0  0  0  0  0  0  0  0  0  0  0
   21.4163   25.6074   34.1673 C   0  0  0  0  0  0  0  0  0  0  0  0
   22.7401   25.5942   34.1180 N   0  0  0  0  0  0  0  0  0  0  0  0
  1  2  1  0
  2  3  2  0
  2  4  1  0
  4  5  2  0
  5  6  1  0
  6  7  2  0
  7  8  1  0
  8  9  2  0
  9 10  1  0
 10 11  2  0
 11 12  1  0
 12 13  2  0
 13 14  1  0
  1 15  1  0
 15 16  2  0
 16 17  1  0
 17 18  2  0
 18 19  1  0
 19 20  1  6
 19 21  1  0
 21 22  1  0
 22 23  1  0
 23 24  1  0
 23 25  1  0
 19 26  1  0
 26 27  2  0
 13  4  1  0
 27 15  1  0
 12  7  1  0
 26 18  1  0
M  END
>  <AAScore>  (1) 
34.93472791848247

>  <RootName>  (1) 
./4ZLY/04_DeltaGEst/trajectory_02/rank_00/lead_0158

$$$$
