confid_0
     RDKit          3D

 28 31  0  0  0  0  0  0  0  0999 V2000
   24.5500   26.3900   36.2500 N   0  0  0  0  0  0  0  0  0  0  0  0
   25.6000   26.1300   35.4000 C   0  0  0  0  0  0  0  0  0  0  0  0
   25.4300   25.4300   34.4200 O   0  0  0  0  0  0  0  0  0  0  0  0
   26.9800   26.6300   35.7100 C   0  0  0  0  0  0  0  0  0  0  0  0
   27.3200   26.8200   36.9800 N   0  0  0  0  0  0  0  0  0  0  0  0
   28.4700   27.4000   37.3100 N   0  0  0  0  0  0  0  0  0  0  0  0
   29.4000   27.6300   36.3700 C   0  0  0  0  0  0  0  0  0  0  0  0
   30.6600   28.0500   36.8000 C   0  0  0  0  0  0  0  0  0  0  0  0
   31.5700   28.3600   35.7800 C   0  0  0  0  0  0  0  0  0  0  0  0
   31.3700   28.1000   34.4300 C   0  0  0  0  0  0  0  0  0  0  0  0
   30.1200   27.5900   34.0500 C   0  0  0  0  0  0  0  0  0  0  0  0
   29.1500   27.3400   35.0300 C   0  0  0  0  0  0  0  0  0  0  0  0
   27.8800   26.8900   34.6600 C   0  0  0  0  0  0  0  0  0  0  0  0
   27.4800   26.6100   33.3700 N   0  0  0  0  0  0  0  0  0  0  0  0
   31.0049   28.2822   38.2258 C   0  0  0  0  0  0  0  0  0  0  0  0
   30.7799   27.2747   39.1884 C   0  0  0  0  0  0  0  0  0  0  0  0
   31.1196   27.5273   40.5182 C   0  0  0  0  0  0  0  0  0  0  0  0
   30.9907   26.6236   41.6790 C   0  0  0  0  0  0  0  0  0  0  0  0
   31.3855   27.4344   42.8590 N   0  0  0  0  0  0  0  0  0  0  0  0
   32.3262   26.7253   43.7476 C   0  0  0  0  0  0  0  0  0  0  0  0
   31.6047   25.6129   44.5208 C   0  0  0  0  0  0  0  0  0  0  0  0
   32.5157   24.9826   45.5011 N   0  0  0  0  0  0  0  0  0  0  0  0
   31.7428   24.3803   46.5991 C   0  0  0  0  0  0  0  0  0  0  0  0
   33.3420   23.9437   44.8599 C   0  0  0  0  0  0  0  0  0  0  0  0
   31.9620   28.7016   42.3470 C   0  0  0  0  0  0  0  0  0  0  0  0
   31.6721   28.7108   40.8985 C   0  0  0  0  0  0  0  0  0  0  0  0
   31.9246   29.7252   39.9753 C   0  0  0  0  0  0  0  0  0  0  0  0
   31.5869   29.5075   38.6302 C   0  0  0  0  0  0  0  0  0  0  0  0
  1  2  1  0
  2  3  2  0
  2  4  1  0
  4  5  2  0
  5  6  1  0
  6  7  2  0
  7  8  1  0
  8  9  2  0
  9 10  1  0
 10 11  2  0
 11 12  1  0
 12 13  2  0
 13 14  1  0
  8 15  1  0
 15 16  2  0
 16 17  1  0
 17 18  1  0
 18 19  1  0
 19 20  1  0
 20 21  1  0
 21 22  1  0
 22 23  1  0
 22 24  1  0
 19 25  1  0
 25 26  1  0
 26 27  1  0
 27 28  2  0
 13  4  1  0
 28 15  1  0
 12  7  1  0
 26 17  2  0
M  END
>  <AAScore>  (1) 
61.9104690384716

>  <RootName>  (1) 
./4ZLY/04_DeltaGEst/trajectory_01/rank_01/lead_0049

$$$$
