confid_16
     RDKit          3D

 28 31  0  0  0  0  0  0  0  0999 V2000
   24.5500   26.3900   36.2500 N   0  0  0  0  0  0  0  0  0  0  0  0
   25.6000   26.1300   35.4000 C   0  0  0  0  0  0  0  0  0  0  0  0
   25.4300   25.4300   34.4200 O   0  0  0  0  0  0  0  0  0  0  0  0
   26.9800   26.6300   35.7100 C   0  0  0  0  0  0  0  0  0  0  0  0
   27.3200   26.8200   36.9800 N   0  0  0  0  0  0  0  0  0  0  0  0
   28.4700   27.4000   37.3100 N   0  0  0  0  0  0  0  0  0  0  0  0
   29.4000   27.6300   36.3700 C   0  0  0  0  0  0  0  0  0  0  0  0
   30.6600   28.0500   36.8000 C   0  0  0  0  0  0  0  0  0  0  0  0
   31.5700   28.3600   35.7800 C   0  0  0  0  0  0  0  0  0  0  0  0
   31.3700   28.1000   34.4300 C   0  0  0  0  0  0  0  0  0  0  0  0
   30.1200   27.5900   34.0500 C   0  0  0  0  0  0  0  0  0  0  0  0
   29.1500   27.3400   35.0300 C   0  0  0  0  0  0  0  0  0  0  0  0
   27.8800   26.8900   34.6600 C   0  0  0  0  0  0  0  0  0  0  0  0
   27.4800   26.6100   33.3700 N   0  0  0  0  0  0  0  0  0  0  0  0
   23.1640   26.2040   35.9141 C   0  0  0  0  0  0  0  0  0  0  0  0
   22.2868   25.8784   36.9002 N   0  0  0  0  0  0  0  0  0  0  0  0
   20.9602   25.7165   36.6626 C   0  0  0  0  0  0  0  0  0  0  0  0
   20.4499   25.8792   35.3683 C   0  0  0  0  0  0  0  0  0  0  0  0
   18.9706   25.7595   35.1110 C   0  0  0  0  0  0  0  0  0  0  0  0
   18.6916   25.2375   33.7614 N   0  0  0  0  0  0  0  0  0  0  0  0
   17.4317   24.5718   33.5200 C   0  0  0  0  0  0  0  0  0  0  0  0
   16.5056   24.6478   34.3732 O   0  0  0  0  0  0  0  0  0  0  0  0
   17.1785   23.8035   32.2571 C   0  0  0  0  0  0  0  0  0  0  0  0
   19.6454   25.4246   32.6511 C   0  0  0  0  0  0  0  0  0  0  0  0
   20.7086   26.4984   32.9579 C   0  0  1  0  0  0  0  0  0  0  0  0
   21.3182   26.2384   34.3247 C   0  0  0  0  0  0  0  0  0  0  0  0
   22.6853   26.4235   34.6110 C   0  0  0  0  0  0  0  0  0  0  0  0
   21.7285   26.5568   31.8083 C   0  0  0  0  0  0  0  0  0  0  0  0
  1  2  1  0
  2  3  2  0
  2  4  1  0
  4  5  2  0
  5  6  1  0
  6  7  2  0
  7  8  1  0
  8  9  2  0
  9 10  1  0
 10 11  2  0
 11 12  1  0
 12 13  2  0
 13 14  1  0
  1 15  1  0
 15 16  2  0
 16 17  1  0
 17 18  2  0
 18 19  1  0
 19 20  1  0
 20 21  1  0
 21 22  2  0
 21 23  1  0
 20 24  1  0
 24 25  1  0
 25 26  1  0
 26 27  2  0
 25 28  1  6
 13  4  1  0
 27 15  1  0
 12  7  1  0
 26 18  1  0
M  END
>  <AAScore>  (1) 
1292.715095047058

>  <RootName>  (1) 
./4ZLY/04_DeltaGEst/trajectory_01/rank_00/lead_0149

$$$$
