confid_16
     RDKit          3D

 27 30  0  0  0  0  0  0  0  0999 V2000
   25.3300   26.2600   34.7600 N   0  0  0  0  0  0  0  0  0  0  0  0
   26.1200   25.9200   33.6900 C   0  0  0  0  0  0  0  0  0  0  0  0
   25.6300   25.1100   32.9400 O   0  0  0  0  0  0  0  0  0  0  0  0
   27.5200   26.3800   33.4600 C   0  0  0  0  0  0  0  0  0  0  0  0
   28.1600   26.6300   34.6100 N   0  0  0  0  0  0  0  0  0  0  0  0
   29.4800   26.8500   34.5700 N   0  0  0  0  0  0  0  0  0  0  0  0
   30.1900   26.7800   33.4400 C   0  0  0  0  0  0  0  0  0  0  0  0
   31.5600   27.0500   33.5000 C   0  0  0  0  0  0  0  0  0  0  0  0
   32.2700   27.2400   32.3100 C   0  0  0  0  0  0  0  0  0  0  0  0
   31.6100   27.2500   31.0800 C   0  0  0  0  0  0  0  0  0  0  0  0
   30.2700   26.8700   31.0600 C   0  0  0  0  0  0  0  0  0  0  0  0
   29.5100   26.6900   32.2300 C   0  0  0  0  0  0  0  0  0  0  0  0
   28.1400   26.4100   32.2000 C   0  0  0  0  0  0  0  0  0  0  0  0
   27.4300   26.1300   31.0500 N   0  0  0  0  0  0  0  0  0  0  0  0
   23.8910   26.2185   34.7775 C   0  0  0  0  0  0  0  0  0  0  0  0
   23.2514   26.0398   35.9711 N   0  0  0  0  0  0  0  0  0  0  0  0
   21.8961   26.0249   36.0245 C   0  0  0  0  0  0  0  0  0  0  0  0
   21.0600   25.8175   37.2194 C   0  0  0  0  0  0  0  0  0  0  0  0
   19.6633   26.0169   36.7543 N   0  0  0  0  0  0  0  0  0  0  0  0
   19.7001   26.0979   35.2719 C   0  0  0  0  0  0  0  0  0  0  0  0
   21.1323   26.1865   34.9158 C   0  0  0  0  0  0  0  0  0  0  0  0
   21.7162   26.3884   33.6657 C   0  0  0  0  0  0  0  0  0  0  0  0
   20.8945   26.5563   32.5416 O   0  0  0  0  0  0  0  0  0  0  0  0
   21.3802   26.7570   31.2186 C   0  0  0  0  0  0  0  0  0  0  0  0
   23.1268   26.4167   33.5994 C   0  0  0  0  0  0  0  0  0  0  0  0
   18.7499   24.9555   37.2193 C   0  0  0  0  0  0  0  0  0  0  0  0
   18.4692   25.0982   38.7132 C   0  0  0  0  0  0  0  0  0  0  0  0
  1  2  1  0
  2  3  2  0
  2  4  1  0
  4  5  2  0
  5  6  1  0
  6  7  2  0
  7  8  1  0
  8  9  2  0
  9 10  1  0
 10 11  2  0
 11 12  1  0
 12 13  2  0
 13 14  1  0
  1 15  1  0
 15 16  2  0
 16 17  1  0
 17 18  1  0
 18 19  1  0
 19 20  1  0
 20 21  1  0
 21 22  1  0
 22 23  1  0
 23 24  1  0
 22 25  2  0
 19 26  1  0
 26 27  1  0
 13  4  1  0
 25 15  1  0
 12  7  1  0
 21 17  2  0
M  END
>  <AAScore>  (1) 
5108.039077332545

>  <RootName>  (1) 
./4ZLY/04_DeltaGEst/trajectory_03/rank_00/lead_0129

$$$$
