confid_11
     RDKit          3D

 29 32  0  0  0  0  0  0  0  0999 V2000
   24.2000   26.2400   35.6900 N   0  0  0  0  0  0  0  0  0  0  0  0
   24.8500   26.2800   34.4800 C   0  0  0  0  0  0  0  0  0  0  0  0
   24.3100   25.7400   33.5400 O   0  0  0  0  0  0  0  0  0  0  0  0
   26.1800   26.9700   34.4700 C   0  0  0  0  0  0  0  0  0  0  0  0
   26.6500   27.6000   35.5500 N   0  0  0  0  0  0  0  0  0  0  0  0
   27.7900   28.2700   35.6200 N   0  0  0  0  0  0  0  0  0  0  0  0
   28.5400   28.3000   34.5100 C   0  0  0  0  0  0  0  0  0  0  0  0
   29.7700   28.9400   34.5600 C   0  0  0  0  0  0  0  0  0  0  0  0
   30.7000   28.8900   33.5000 C   0  0  0  0  0  0  0  0  0  0  0  0
   30.3700   28.1400   32.3700 C   0  0  0  0  0  0  0  0  0  0  0  0
   29.1200   27.5200   32.2800 C   0  0  0  0  0  0  0  0  0  0  0  0
   28.2100   27.6100   33.3300 C   0  0  0  0  0  0  0  0  0  0  0  0
   26.9700   26.9700   33.3100 C   0  0  0  0  0  0  0  0  0  0  0  0
   26.5300   26.2400   32.2200 N   0  0  0  0  0  0  0  0  0  0  0  0
   23.2857   25.1964   36.0793 C   0  0  0  0  0  0  0  0  0  0  0  0
   23.3817   24.0355   35.4731 N   0  0  0  0  0  0  0  0  0  0  0  0
   22.6264   22.8192   35.5899 C   0  0  0  0  0  0  0  0  0  0  0  0
   21.2838   22.7666   35.5427 C   0  0  0  0  0  0  0  0  0  0  0  0
   20.4738   24.0161   35.5732 C   0  0  0  0  0  0  0  0  0  0  0  0
   20.1570   24.2776   36.9844 N   0  0  0  0  0  0  0  0  0  0  0  0
   19.3169   23.1812   37.5589 C   0  0  0  0  0  0  0  0  0  0  0  0
   19.3488   21.8167   36.7871 C   0  0  0  0  0  0  0  0  0  0  0  0
   20.5896   21.6012   36.0187 N   0  0  0  0  0  0  0  0  0  0  0  0
   20.8903   20.2542   35.5066 C   0  0  0  0  0  0  0  0  0  0  0  0
   20.0269   19.8962   34.2847 C   0  0  0  0  0  0  0  0  0  0  0  0
   20.2631   20.8122   33.0809 C   0  0  0  0  0  0  0  0  0  0  0  0
   21.6213   20.8207   32.7345 O   0  0  0  0  0  0  0  0  0  0  0  0
   21.3826   24.4759   37.8053 C   0  0  0  0  0  0  0  0  0  0  0  0
   22.3414   25.5395   37.2357 C   0  0  0  0  0  0  0  0  0  0  0  0
  1  2  1  0
  2  3  2  0
  2  4  1  0
  4  5  2  0
  5  6  1  0
  6  7  2  0
  7  8  1  0
  8  9  2  0
  9 10  1  0
 10 11  2  0
 11 12  1  0
 12 13  2  0
 13 14  1  0
  1 15  1  0
 15 16  2  0
 16 17  1  0
 17 18  2  0
 18 19  1  0
 19 20  1  0
 20 21  1  0
 21 22  1  0
 22 23  1  0
 23 24  1  0
 24 25  1  0
 25 26  1  0
 26 27  1  0
 20 28  1  0
 28 29  1  0
 13  4  1  0
 29 15  1  0
 12  7  1  0
 23 18  1  0
M  END
>  <AAScore>  (1) 
3890.6309433607776

>  <RootName>  (1) 
./4ZLY/04_DeltaGEst/trajectory_04/rank_00/lead_0046

$$$$
