confid_18
     RDKit          3D

 28 31  0  0  0  0  0  0  0  0999 V2000
   24.5700   26.8800   35.5900 N   0  0  0  0  0  0  0  0  0  0  0  0
   25.5000   26.4000   34.6900 C   0  0  0  0  0  0  0  0  0  0  0  0
   25.1700   25.5200   33.9100 O   0  0  0  0  0  0  0  0  0  0  0  0
   26.8400   27.0200   34.7400 C   0  0  0  0  0  0  0  0  0  0  0  0
   27.3800   27.2800   35.9400 N   0  0  0  0  0  0  0  0  0  0  0  0
   28.6200   27.7400   36.0300 N   0  0  0  0  0  0  0  0  0  0  0  0
   29.3800   28.0000   34.9600 C   0  0  0  0  0  0  0  0  0  0  0  0
   30.6700   28.5000   35.1300 C   0  0  0  0  0  0  0  0  0  0  0  0
   31.5400   28.6100   34.0300 C   0  0  0  0  0  0  0  0  0  0  0  0
   31.0900   28.2200   32.7700 C   0  0  0  0  0  0  0  0  0  0  0  0
   29.8000   27.7000   32.6000 C   0  0  0  0  0  0  0  0  0  0  0  0
   28.9600   27.5500   33.7100 C   0  0  0  0  0  0  0  0  0  0  0  0
   27.6600   27.0300   33.5900 C   0  0  0  0  0  0  0  0  0  0  0  0
   27.1600   26.7400   32.3400 N   0  0  0  0  0  0  0  0  0  0  0  0
   23.1486   26.6984   35.4632 C   0  0  0  0  0  0  0  0  0  0  0  0
   22.3967   26.5943   36.5866 N   0  0  0  0  0  0  0  0  0  0  0  0
   21.0496   26.4469   36.5409 C   0  0  0  0  0  0  0  0  0  0  0  0
   20.3643   26.4152   35.3198 C   0  0  0  0  0  0  0  0  0  0  0  0
   18.9698   26.2519   35.4160 O   0  0  0  0  0  0  0  0  0  0  0  0
   17.9608   26.5339   34.4496 C   0  0  0  0  0  0  0  0  0  0  0  0
   17.6526   25.3011   33.5902 C   0  0  0  0  0  0  0  0  0  0  0  0
   18.3650   25.3463   32.2983 N   0  0  0  0  0  0  0  0  0  0  0  0
   19.8187   25.1300   32.4479 C   0  0  0  0  0  0  0  0  0  0  0  0
   20.5241   26.4663   32.7272 C   0  0  0  0  0  0  0  0  0  0  0  0
   21.1191   26.5322   34.1168 C   0  0  0  0  0  0  0  0  0  0  0  0
   22.5154   26.6900   34.2127 C   0  0  0  0  0  0  0  0  0  0  0  0
   17.7557   24.4450   31.2920 C   0  0  0  0  0  0  0  0  0  0  0  0
   17.8259   22.9573   31.6664 C   0  0  0  0  0  0  0  0  0  0  0  0
  1  2  1  0
  2  3  2  0
  2  4  1  0
  4  5  2  0
  5  6  1  0
  6  7  2  0
  7  8  1  0
  8  9  2  0
  9 10  1  0
 10 11  2  0
 11 12  1  0
 12 13  2  0
 13 14  1  0
  1 15  1  0
 15 16  2  0
 16 17  1  0
 17 18  2  0
 18 19  1  0
 19 20  1  0
 20 21  1  0
 21 22  1  0
 22 23  1  0
 23 24  1  0
 24 25  1  0
 25 26  2  0
 22 27  1  0
 27 28  1  0
 13  4  1  0
 26 15  1  0
 12  7  1  0
 25 18  1  0
M  END
>  <AAScore>  (1) 
567.9485837928971

>  <RootName>  (1) 
./4ZLY/04_DeltaGEst/trajectory_05/rank_00/lead_0210

$$$$
