confid_14
     RDKit          3D

 28 31  0  0  0  0  0  0  0  0999 V2000
   24.5500   26.3900   36.2500 N   0  0  0  0  0  0  0  0  0  0  0  0
   25.6000   26.1300   35.4000 C   0  0  0  0  0  0  0  0  0  0  0  0
   25.4300   25.4300   34.4200 O   0  0  0  0  0  0  0  0  0  0  0  0
   26.9800   26.6300   35.7100 C   0  0  0  0  0  0  0  0  0  0  0  0
   27.3200   26.8200   36.9800 N   0  0  0  0  0  0  0  0  0  0  0  0
   28.4700   27.4000   37.3100 N   0  0  0  0  0  0  0  0  0  0  0  0
   29.4000   27.6300   36.3700 C   0  0  0  0  0  0  0  0  0  0  0  0
   30.6600   28.0500   36.8000 C   0  0  0  0  0  0  0  0  0  0  0  0
   31.5700   28.3600   35.7800 C   0  0  0  0  0  0  0  0  0  0  0  0
   31.3700   28.1000   34.4300 C   0  0  0  0  0  0  0  0  0  0  0  0
   30.1200   27.5900   34.0500 C   0  0  0  0  0  0  0  0  0  0  0  0
   29.1500   27.3400   35.0300 C   0  0  0  0  0  0  0  0  0  0  0  0
   27.8800   26.8900   34.6600 C   0  0  0  0  0  0  0  0  0  0  0  0
   27.4800   26.6100   33.3700 N   0  0  0  0  0  0  0  0  0  0  0  0
   23.1736   25.9482   35.9891 C   0  0  0  0  0  0  0  0  0  0  0  0
   22.4147   27.0425   35.2318 C   0  0  0  0  0  0  0  0  0  0  0  0
   20.9685   26.6026   34.9253 C   0  0  0  0  0  0  0  0  0  0  0  0
   20.3262   25.8130   36.0119 N   0  0  0  0  0  0  0  0  0  0  0  0
   20.1599   24.3848   35.6686 C   0  0  0  0  0  0  0  0  0  0  0  0
   19.0626   24.2190   34.6549 C   0  0  0  0  0  0  0  0  0  0  0  0
   17.8013   24.6507   34.8741 N   0  0  0  0  0  0  0  0  0  0  0  0
   17.1447   24.3145   33.7462 C   0  0  0  0  0  0  0  0  0  0  0  0
   15.4466   24.6380   33.4680 Cl  0  0  0  0  0  0  0  0  0  0  0  0
   17.9975   23.6895   32.8667 C   0  0  0  0  0  0  0  0  0  0  0  0
   19.2083   23.6303   33.4454 N   0  0  0  0  0  0  0  0  0  0  0  0
   20.4132   23.0381   32.8714 C   0  0  0  0  0  0  0  0  0  0  0  0
   20.9746   25.9957   37.3268 C   0  0  0  0  0  0  0  0  0  0  0  0
   22.4610   25.5861   37.3139 C   0  0  0  0  0  0  0  0  0  0  0  0
  1  2  1  0
  2  3  2  0
  2  4  1  0
  4  5  2  0
  5  6  1  0
  6  7  2  0
  7  8  1  0
  8  9  2  0
  9 10  1  0
 10 11  2  0
 11 12  1  0
 12 13  2  0
 13 14  1  0
  1 15  1  0
 15 16  1  0
 16 17  1  0
 17 18  1  0
 18 19  1  0
 19 20  1  0
 20 21  2  0
 21 22  1  0
 22 23  1  0
 22 24  2  0
 24 25  1  0
 25 26  1  0
 18 27  1  0
 27 28  1  0
 13  4  1  0
 28 15  1  0
 12  7  1  0
 25 20  1  0
M  END
>  <AAScore>  (1) 
1575.0936157419226

>  <RootName>  (1) 
./4ZLY/04_DeltaGEst/trajectory_01/rank_00/lead_0293

$$$$
