confid_11
     RDKit          3D

 29 32  0  0  0  0  0  0  0  0999 V2000
   24.2000   26.2400   35.6900 N   0  0  0  0  0  0  0  0  0  0  0  0
   24.8500   26.2800   34.4800 C   0  0  0  0  0  0  0  0  0  0  0  0
   24.3100   25.7400   33.5400 O   0  0  0  0  0  0  0  0  0  0  0  0
   26.1800   26.9700   34.4700 C   0  0  0  0  0  0  0  0  0  0  0  0
   26.6500   27.6000   35.5500 N   0  0  0  0  0  0  0  0  0  0  0  0
   27.7900   28.2700   35.6200 N   0  0  0  0  0  0  0  0  0  0  0  0
   28.5400   28.3000   34.5100 C   0  0  0  0  0  0  0  0  0  0  0  0
   29.7700   28.9400   34.5600 C   0  0  0  0  0  0  0  0  0  0  0  0
   30.7000   28.8900   33.5000 C   0  0  0  0  0  0  0  0  0  0  0  0
   30.3700   28.1400   32.3700 C   0  0  0  0  0  0  0  0  0  0  0  0
   29.1200   27.5200   32.2800 C   0  0  0  0  0  0  0  0  0  0  0  0
   28.2100   27.6100   33.3300 C   0  0  0  0  0  0  0  0  0  0  0  0
   26.9700   26.9700   33.3100 C   0  0  0  0  0  0  0  0  0  0  0  0
   26.5300   26.2400   32.2200 N   0  0  0  0  0  0  0  0  0  0  0  0
   30.1323   29.6964   35.7285 N   0  0  0  0  0  0  0  0  0  0  0  0
   29.4413   30.9653   36.0051 C   0  0  0  0  0  0  0  0  0  0  0  0
   30.0415   31.6750   37.2219 C   0  0  0  0  0  0  0  0  0  0  0  0
   31.5052   31.6716   37.1255 N   0  0  0  0  0  0  0  0  0  0  0  0
   32.2385   32.8820   37.3595 C   0  0  0  0  0  0  0  0  0  0  0  0
   32.7687   33.5828   36.2667 C   0  0  0  0  0  0  0  0  0  0  0  0
   33.4682   34.7865   36.4617 C   0  0  0  0  0  0  0  0  0  0  0  0
   34.0070   35.5243   35.3987 O   0  0  0  0  0  0  0  0  0  0  0  0
   33.9170   35.1480   34.0296 C   0  0  0  0  0  0  0  0  0  0  0  0
   33.6339   35.2760   37.7600 C   0  0  0  0  0  0  0  0  0  0  0  0
   33.1191   34.5789   38.8550 C   0  0  0  0  0  0  0  0  0  0  0  0
   32.4233   33.3747   38.6683 C   0  0  0  0  0  0  0  0  0  0  0  0
   31.8613   32.6465   39.8567 C   0  0  0  0  0  0  0  0  0  0  0  0
   32.2326   30.4505   36.7553 C   0  0  0  0  0  0  0  0  0  0  0  0
   31.2728   29.2737   36.5516 C   0  0  0  0  0  0  0  0  0  0  0  0
  1  2  1  0
  2  3  2  0
  2  4  1  0
  4  5  2  0
  5  6  1  0
  6  7  2  0
  7  8  1  0
  8  9  2  0
  9 10  1  0
 10 11  2  0
 11 12  1  0
 12 13  2  0
 13 14  1  0
  8 15  1  0
 15 16  1  0
 16 17  1  0
 17 18  1  0
 18 19  1  0
 19 20  2  0
 20 21  1  0
 21 22  1  0
 22 23  1  0
 21 24  2  0
 24 25  1  0
 25 26  2  0
 26 27  1  0
 18 28  1  0
 28 29  1  0
 13  4  1  0
 29 15  1  0
 12  7  1  0
 26 19  1  0
M  END
>  <AAScore>  (1) 
-7.816806036219682

>  <RootName>  (1) 
./4ZLY/04_DeltaGEst/trajectory_04/rank_01/lead_0309

$$$$
