confid_7
     RDKit          3D

 27 30  0  0  0  0  0  0  0  0999 V2000
   25.3300   26.2600   34.7600 N   0  0  0  0  0  0  0  0  0  0  0  0
   26.1200   25.9200   33.6900 C   0  0  0  0  0  0  0  0  0  0  0  0
   25.6300   25.1100   32.9400 O   0  0  0  0  0  0  0  0  0  0  0  0
   27.5200   26.3800   33.4600 C   0  0  0  0  0  0  0  0  0  0  0  0
   28.1600   26.6300   34.6100 N   0  0  0  0  0  0  0  0  0  0  0  0
   29.4800   26.8500   34.5700 N   0  0  0  0  0  0  0  0  0  0  0  0
   30.1900   26.7800   33.4400 C   0  0  0  0  0  0  0  0  0  0  0  0
   31.5600   27.0500   33.5000 C   0  0  0  0  0  0  0  0  0  0  0  0
   32.2700   27.2400   32.3100 C   0  0  0  0  0  0  0  0  0  0  0  0
   31.6100   27.2500   31.0800 C   0  0  0  0  0  0  0  0  0  0  0  0
   30.2700   26.8700   31.0600 C   0  0  0  0  0  0  0  0  0  0  0  0
   29.5100   26.6900   32.2300 C   0  0  0  0  0  0  0  0  0  0  0  0
   28.1400   26.4100   32.2000 C   0  0  0  0  0  0  0  0  0  0  0  0
   27.4300   26.1300   31.0500 N   0  0  0  0  0  0  0  0  0  0  0  0
   23.9223   25.9826   34.9106 C   0  0  0  0  0  0  0  0  0  0  0  0
   23.2266   25.3181   33.9541 N   0  0  0  0  0  0  0  0  0  0  0  0
   21.8993   25.0656   34.0820 C   0  0  0  0  0  0  0  0  0  0  0  0
   21.2078   24.3364   32.9659 C   0  0  0  0  0  0  0  0  0  0  0  0
   19.8092   23.8517   33.3683 C   0  0  0  0  0  0  0  0  0  0  0  0
   19.0512   24.8816   34.1002 N   0  0  0  0  0  0  0  0  0  0  0  0
   19.7151   25.2416   35.3697 C   0  0  0  0  0  0  0  0  0  0  0  0
   21.1982   25.5413   35.2102 C   0  0  0  0  0  0  0  0  0  0  0  0
   21.9457   26.2092   36.2125 C   0  0  0  0  0  0  0  0  0  0  0  0
   21.3519   26.6641   37.5234 C   0  0  0  0  0  0  0  0  0  0  0  0
   21.3430   25.5281   38.5424 C   0  0  0  0  0  0  0  0  0  0  0  0
   23.2778   26.4075   36.0267 N   0  0  0  0  0  0  0  0  0  0  0  0
   18.7581   26.0654   33.2745 C   0  0  0  0  0  0  0  0  0  0  0  0
  1  2  1  0
  2  3  2  0
  2  4  1  0
  4  5  2  0
  5  6  1  0
  6  7  2  0
  7  8  1  0
  8  9  2  0
  9 10  1  0
 10 11  2  0
 11 12  1  0
 12 13  2  0
 13 14  1  0
  1 15  1  0
 15 16  2  0
 16 17  1  0
 17 18  1  0
 18 19  1  0
 19 20  1  0
 20 21  1  0
 21 22  1  0
 22 23  1  0
 23 24  1  0
 24 25  1  0
 23 26  2  0
 20 27  1  0
 13  4  1  0
 26 15  1  0
 12  7  1  0
 22 17  2  0
M  END
>  <AAScore>  (1) 
7448.771679727595

>  <RootName>  (1) 
./4ZLY/04_DeltaGEst/trajectory_03/rank_00/lead_0031

$$$$
