confid_8
     RDKit          3D

 28 31  0  0  0  0  0  0  0  0999 V2000
   24.2000   26.2400   35.6900 N   0  0  0  0  0  0  0  0  0  0  0  0
   24.8500   26.2800   34.4800 C   0  0  0  0  0  0  0  0  0  0  0  0
   24.3100   25.7400   33.5400 O   0  0  0  0  0  0  0  0  0  0  0  0
   26.1800   26.9700   34.4700 C   0  0  0  0  0  0  0  0  0  0  0  0
   26.6500   27.6000   35.5500 N   0  0  0  0  0  0  0  0  0  0  0  0
   27.7900   28.2700   35.6200 N   0  0  0  0  0  0  0  0  0  0  0  0
   28.5400   28.3000   34.5100 C   0  0  0  0  0  0  0  0  0  0  0  0
   29.7700   28.9400   34.5600 C   0  0  0  0  0  0  0  0  0  0  0  0
   30.7000   28.8900   33.5000 C   0  0  0  0  0  0  0  0  0  0  0  0
   30.3700   28.1400   32.3700 C   0  0  0  0  0  0  0  0  0  0  0  0
   29.1200   27.5200   32.2800 C   0  0  0  0  0  0  0  0  0  0  0  0
   28.2100   27.6100   33.3300 C   0  0  0  0  0  0  0  0  0  0  0  0
   26.9700   26.9700   33.3100 C   0  0  0  0  0  0  0  0  0  0  0  0
   26.5300   26.2400   32.2200 N   0  0  0  0  0  0  0  0  0  0  0  0
   30.1408   29.6592   35.7487 N   0  0  0  0  0  0  0  0  0  0  0  0
   30.6124   28.9224   36.9206 C   0  0  0  0  0  0  0  0  0  0  0  0
   29.9934   29.5247   38.1774 C   0  0  0  0  0  0  0  0  0  0  0  0
   30.1532   31.0242   38.2114 C   0  0  0  0  0  0  0  0  0  0  0  0
   30.0740   31.6888   39.4452 C   0  0  0  0  0  0  0  0  0  0  0  0
   30.1675   33.0925   39.5251 C   0  0  0  0  0  0  0  0  0  0  0  0
   30.0941   33.7720   40.8056 N   0  0  0  0  0  0  0  0  0  0  0  0
   29.4431   33.1313   41.9549 C   0  0  0  0  0  0  0  0  0  0  0  0
   30.6694   35.1121   40.9729 C   0  0  0  0  0  0  0  0  0  0  0  0
   30.3315   33.8201   38.3311 C   0  0  0  0  0  0  0  0  0  0  0  0
   30.3934   33.1698   37.0971 C   0  0  0  0  0  0  0  0  0  0  0  0
   30.2924   31.7727   37.0214 C   0  0  0  0  0  0  0  0  0  0  0  0
   30.3907   31.1015   35.6692 C   0  0  0  0  0  0  0  0  0  0  0  0
   30.5510   33.9083   35.9688 F   0  0  0  0  0  0  0  0  0  0  0  0
  1  2  1  0
  2  3  2  0
  2  4  1  0
  4  5  2  0
  5  6  1  0
  6  7  2  0
  7  8  1  0
  8  9  2  0
  9 10  1  0
 10 11  2  0
 11 12  1  0
 12 13  2  0
 13 14  1  0
  8 15  1  0
 15 16  1  0
 16 17  1  0
 17 18  1  0
 18 19  2  0
 19 20  1  0
 20 21  1  0
 21 22  1  0
 21 23  1  0
 20 24  2  0
 24 25  1  0
 25 26  2  0
 26 27  1  0
 25 28  1  0
 13  4  1  0
 27 15  1  0
 12  7  1  0
 26 18  1  0
M  END
>  <AAScore>  (1) 
-8.980444309663795

>  <RootName>  (1) 
./4ZLY/04_DeltaGEst/trajectory_04/rank_01/lead_0091

$$$$
