confid_5
     RDKit          3D

 29 33  0  0  0  0  0  0  0  0999 V2000
   24.4800   26.1000   36.1300 N   0  0  0  0  0  0  0  0  0  0  0  0
   25.2500   26.2500   34.9900 C   0  0  0  0  0  0  0  0  0  0  0  0
   24.7400   25.7600   33.9900 O   0  0  0  0  0  0  0  0  0  0  0  0
   26.5900   26.8900   34.9600 C   0  0  0  0  0  0  0  0  0  0  0  0
   27.0600   27.2400   36.1600 N   0  0  0  0  0  0  0  0  0  0  0  0
   28.3000   27.7100   36.2400 N   0  0  0  0  0  0  0  0  0  0  0  0
   29.0500   27.9600   35.1500 C   0  0  0  0  0  0  0  0  0  0  0  0
   30.3400   28.4900   35.2600 C   0  0  0  0  0  0  0  0  0  0  0  0
   31.1100   28.8200   34.1400 C   0  0  0  0  0  0  0  0  0  0  0  0
   30.5200   28.6700   32.8800 C   0  0  0  0  0  0  0  0  0  0  0  0
   29.2900   28.0200   32.7700 C   0  0  0  0  0  0  0  0  0  0  0  0
   28.5200   27.7100   33.8900 C   0  0  0  0  0  0  0  0  0  0  0  0
   27.2700   27.0800   33.7600 C   0  0  0  0  0  0  0  0  0  0  0  0
   26.7500   26.8800   32.4900 N   0  0  0  0  0  0  0  0  0  0  0  0
   23.0482   25.9330   36.1629 C   0  0  0  0  0  0  0  0  0  0  0  0
   22.3644   25.8044   37.2907 C   0  0  0  0  0  0  0  0  0  0  0  0
   20.9492   25.7269   36.9717 C   0  0  0  0  0  0  0  0  0  0  0  0
   19.8670   25.4868   37.9783 C   0  0  0  0  0  0  0  0  0  0  0  0
   19.2789   26.7804   38.3936 N   0  0  0  0  0  0  0  0  0  0  0  0
   19.1659   26.8516   39.8604 C   0  0  0  0  0  0  0  0  0  0  0  0
   17.9576   27.0150   37.7680 C   0  0  0  0  0  0  0  0  0  0  0  0
   18.0998   27.5844   36.3382 C   0  0  2  0  0  0  0  0  0  0  0  0
   18.9782   28.6811   36.2849 O   0  0  0  0  0  0  0  0  0  0  0  0
   16.7688   27.8911   35.6985 C   0  0  0  0  0  0  0  0  0  0  0  0
   17.1149   26.8553   34.6789 C   0  0  0  0  0  0  0  0  0  0  0  0
   18.4736   26.5504   35.2806 C   0  0  0  0  0  0  0  0  0  0  0  0
   19.5204   25.8099   34.9235 C   0  0  0  0  0  0  0  0  0  0  0  0
   20.7939   25.8476   35.6561 C   0  0  0  0  0  0  0  0  0  0  0  0
   22.1236   25.9481   34.9817 C   0  0  0  0  0  0  0  0  0  0  0  0
  1  2  1  0
  2  3  2  0
  2  4  1  0
  4  5  2  0
  5  6  1  0
  6  7  2  0
  7  8  1  0
  8  9  2  0
  9 10  1  0
 10 11  2  0
 11 12  1  0
 12 13  2  0
 13 14  1  0
  1 15  1  0
 15 16  2  0
 16 17  1  0
 17 18  1  0
 18 19  1  0
 19 20  1  0
 19 21  1  0
 21 22  1  0
 22 23  1  1
 22 24  1  0
 24 25  1  0
 25 26  1  0
 26 27  2  0
 27 28  1  0
 28 29  1  0
 13  4  1  0
 29 15  1  0
 12  7  1  0
 28 17  2  0
 26 22  1  0
M  END
>  <AAScore>  (1) 
4340.03227493868

>  <RootName>  (1) 
./4ZLY/04_DeltaGEst/trajectory_00/rank_00/lead_0449

$$$$
