confid_15
     RDKit          3D

 30 33  0  0  0  0  0  0  0  0999 V2000
   24.5700   26.8800   35.5900 N   0  0  0  0  0  0  0  0  0  0  0  0
   25.5000   26.4000   34.6900 C   0  0  0  0  0  0  0  0  0  0  0  0
   25.1700   25.5200   33.9100 O   0  0  0  0  0  0  0  0  0  0  0  0
   26.8400   27.0200   34.7400 C   0  0  0  0  0  0  0  0  0  0  0  0
   27.3800   27.2800   35.9400 N   0  0  0  0  0  0  0  0  0  0  0  0
   28.6200   27.7400   36.0300 N   0  0  0  0  0  0  0  0  0  0  0  0
   29.3800   28.0000   34.9600 C   0  0  0  0  0  0  0  0  0  0  0  0
   30.6700   28.5000   35.1300 C   0  0  0  0  0  0  0  0  0  0  0  0
   31.5400   28.6100   34.0300 C   0  0  0  0  0  0  0  0  0  0  0  0
   31.0900   28.2200   32.7700 C   0  0  0  0  0  0  0  0  0  0  0  0
   29.8000   27.7000   32.6000 C   0  0  0  0  0  0  0  0  0  0  0  0
   28.9600   27.5500   33.7100 C   0  0  0  0  0  0  0  0  0  0  0  0
   27.6600   27.0300   33.5900 C   0  0  0  0  0  0  0  0  0  0  0  0
   27.1600   26.7400   32.3400 N   0  0  0  0  0  0  0  0  0  0  0  0
   33.1560   29.2753   34.2394 S   0  0  0  0  0  6  0  0  0  0  0  0
   34.0526   28.7341   33.1627 O   0  0  0  0  0  0  0  0  0  0  0  0
   33.6844   28.8395   35.5785 O   0  0  0  0  0  0  0  0  0  0  0  0
   33.0248   31.0696   34.1089 C   0  0  1  0  0  0  0  0  0  0  0  0
   32.5861   31.7309   35.4064 C   0  0  0  0  0  0  0  0  0  0  0  0
   33.7467   32.6359   35.4346 N   0  0  0  0  0  0  0  0  0  0  0  0
   34.2764   31.9820   34.2053 C   0  0  0  0  0  0  0  0  0  0  0  0
   35.6264   31.2912   34.5752 C   0  0  0  0  0  0  0  0  0  0  0  0
   36.4815   30.9757   33.3411 C   0  0  0  0  0  0  0  0  0  0  0  0
   36.8821   32.2547   32.5825 C   0  0  0  0  0  0  0  0  0  0  0  0
   35.8559   33.3945   32.7244 C   0  0  0  0  0  0  0  0  0  0  0  0
   34.4287   32.8577   32.9084 C   0  0  0  0  0  0  0  0  0  0  0  0
   33.3460   34.0614   35.4069 C   0  0  0  0  0  0  0  0  0  0  0  0
   32.9023   34.4155   36.6676 F   0  0  0  0  0  0  0  0  0  0  0  0
   32.3210   34.3188   34.5078 F   0  0  0  0  0  0  0  0  0  0  0  0
   34.4340   34.8577   35.1088 F   0  0  0  0  0  0  0  0  0  0  0  0
  1  2  1  0
  2  3  2  0
  2  4  1  0
  4  5  2  0
  5  6  1  0
  6  7  2  0
  7  8  1  0
  8  9  2  0
  9 10  1  0
 10 11  2  0
 11 12  1  0
 12 13  2  0
 13 14  1  0
  9 15  1  0
 15 16  2  0
 15 17  2  0
 18 15  1  1
 18 19  1  0
 19 20  1  0
 20 21  1  0
 21 22  1  0
 22 23  1  0
 23 24  1  0
 24 25  1  0
 25 26  1  0
 20 27  1  0
 27 28  1  0
 27 29  1  0
 27 30  1  0
 13  4  1  0
 21 18  1  0
 12  7  1  0
 26 21  1  0
M  END
>  <AAScore>  (1) 
-6.286543302617886

>  <RootName>  (1) 
./4ZLY/04_DeltaGEst/trajectory_05/rank_01/lead_0094

$$$$
