confid_1
     RDKit          3D

 29 32  0  0  0  0  0  0  0  0999 V2000
   24.5500   26.3900   36.2500 N   0  0  0  0  0  0  0  0  0  0  0  0
   25.6000   26.1300   35.4000 C   0  0  0  0  0  0  0  0  0  0  0  0
   25.4300   25.4300   34.4200 O   0  0  0  0  0  0  0  0  0  0  0  0
   26.9800   26.6300   35.7100 C   0  0  0  0  0  0  0  0  0  0  0  0
   27.3200   26.8200   36.9800 N   0  0  0  0  0  0  0  0  0  0  0  0
   28.4700   27.4000   37.3100 N   0  0  0  0  0  0  0  0  0  0  0  0
   29.4000   27.6300   36.3700 C   0  0  0  0  0  0  0  0  0  0  0  0
   30.6600   28.0500   36.8000 C   0  0  0  0  0  0  0  0  0  0  0  0
   31.5700   28.3600   35.7800 C   0  0  0  0  0  0  0  0  0  0  0  0
   31.3700   28.1000   34.4300 C   0  0  0  0  0  0  0  0  0  0  0  0
   30.1200   27.5900   34.0500 C   0  0  0  0  0  0  0  0  0  0  0  0
   29.1500   27.3400   35.0300 C   0  0  0  0  0  0  0  0  0  0  0  0
   27.8800   26.8900   34.6600 C   0  0  0  0  0  0  0  0  0  0  0  0
   27.4800   26.6100   33.3700 N   0  0  0  0  0  0  0  0  0  0  0  0
   23.1750   25.9512   35.9690 C   0  0  0  0  0  0  0  0  0  0  0  0
   22.3138   26.0488   37.2416 C   0  0  0  0  0  0  0  0  0  0  0  0
   20.8445   25.7572   36.9238 C   0  0  0  0  0  0  0  0  0  0  0  0
   20.3467   26.6201   35.8421 N   0  0  0  0  0  0  0  0  0  0  0  0
   18.9260   26.6635   35.5939 C   0  0  0  0  0  0  0  0  0  0  0  0
   18.2187   25.6554   35.8715 O   0  0  0  0  0  0  0  0  0  0  0  0
   18.2726   27.8710   34.9723 C   0  0  0  0  0  0  0  0  0  0  0  0
   16.8954   28.0906   35.5245 C   0  0  0  0  0  0  0  0  0  0  0  0
   16.6018   28.7475   36.7054 C   0  0  0  0  0  0  0  0  0  0  0  0
   15.2304   28.6593   36.8496 C   0  0  0  0  0  0  0  0  0  0  0  0
   14.4139   29.2798   37.9349 C   0  0  0  0  0  0  0  0  0  0  0  0
   14.7467   27.9691   35.7545 C   0  0  0  0  0  0  0  0  0  0  0  0
   15.7700   27.6126   34.9564 N   0  0  0  0  0  0  0  0  0  0  0  0
   21.2772   27.4964   35.1135 C   0  0  0  0  0  0  0  0  0  0  0  0
   22.5788   26.7538   34.7788 C   0  0  0  0  0  0  0  0  0  0  0  0
  1  2  1  0
  2  3  2  0
  2  4  1  0
  4  5  2  0
  5  6  1  0
  6  7  2  0
  7  8  1  0
  8  9  2  0
  9 10  1  0
 10 11  2  0
 11 12  1  0
 12 13  2  0
 13 14  1  0
  1 15  1  0
 15 16  1  0
 16 17  1  0
 17 18  1  0
 18 19  1  0
 19 20  2  0
 19 21  1  0
 21 22  1  0
 22 23  2  0
 23 24  1  0
 24 25  1  0
 24 26  2  0
 26 27  1  0
 18 28  1  0
 28 29  1  0
 13  4  1  0
 29 15  1  0
 12  7  1  0
 27 22  1  0
M  END
>  <AAScore>  (1) 
350.02231971207243

>  <RootName>  (1) 
./4ZLY/04_DeltaGEst/trajectory_01/rank_00/lead_0463

$$$$
