confid_2
     RDKit          3D

 27 30  0  0  0  0  0  0  0  0999 V2000
   24.5500   26.3900   36.2500 N   0  0  0  0  0  0  0  0  0  0  0  0
   25.6000   26.1300   35.4000 C   0  0  0  0  0  0  0  0  0  0  0  0
   25.4300   25.4300   34.4200 O   0  0  0  0  0  0  0  0  0  0  0  0
   26.9800   26.6300   35.7100 C   0  0  0  0  0  0  0  0  0  0  0  0
   27.3200   26.8200   36.9800 N   0  0  0  0  0  0  0  0  0  0  0  0
   28.4700   27.4000   37.3100 N   0  0  0  0  0  0  0  0  0  0  0  0
   29.4000   27.6300   36.3700 C   0  0  0  0  0  0  0  0  0  0  0  0
   30.6600   28.0500   36.8000 C   0  0  0  0  0  0  0  0  0  0  0  0
   31.5700   28.3600   35.7800 C   0  0  0  0  0  0  0  0  0  0  0  0
   31.3700   28.1000   34.4300 C   0  0  0  0  0  0  0  0  0  0  0  0
   30.1200   27.5900   34.0500 C   0  0  0  0  0  0  0  0  0  0  0  0
   29.1500   27.3400   35.0300 C   0  0  0  0  0  0  0  0  0  0  0  0
   27.8800   26.8900   34.6600 C   0  0  0  0  0  0  0  0  0  0  0  0
   27.4800   26.6100   33.3700 N   0  0  0  0  0  0  0  0  0  0  0  0
   23.2076   25.8246   36.0462 C   0  0  1  0  0  0  0  0  0  0  0  0
   23.1715   24.3682   36.5239 C   0  0  0  0  0  0  0  0  0  0  0  0
   22.6844   24.4263   37.9652 C   0  0  0  0  0  0  0  0  0  0  0  0
   22.0021   25.7025   38.0869 N   0  0  0  0  0  0  0  0  0  0  0  0
   21.4568   26.1841   39.3249 C   0  0  0  0  0  0  0  0  0  0  0  0
   22.2845   26.3181   40.4443 C   0  0  0  0  0  0  0  0  0  0  0  0
   21.7523   26.8016   41.6411 C   0  0  0  0  0  0  0  0  0  0  0  0
   20.4394   27.1460   41.6926 N   0  0  0  0  0  0  0  0  0  0  0  0
   19.6413   27.0145   40.6323 N   0  0  0  0  0  0  0  0  0  0  0  0
   20.0980   26.5325   39.4450 C   0  0  0  0  0  0  0  0  0  0  0  0
   19.1403   26.4074   38.2994 C   0  0  0  0  0  0  0  0  0  0  0  0
   22.6218   26.9825   42.8441 C   0  0  0  0  0  0  0  0  0  0  0  0
   22.1694   26.5432   36.9138 C   0  0  0  0  0  0  0  0  0  0  0  0
  1  2  1  0
  2  3  2  0
  2  4  1  0
  4  5  2  0
  5  6  1  0
  6  7  2  0
  7  8  1  0
  8  9  2  0
  9 10  1  0
 10 11  2  0
 11 12  1  0
 12 13  2  0
 13 14  1  0
 15  1  1  1
 15 16  1  0
 16 17  1  0
 17 18  1  0
 18 19  1  0
 19 20  2  0
 20 21  1  0
 21 22  2  0
 22 23  1  0
 23 24  2  0
 24 25  1  0
 21 26  1  0
 18 27  1  0
 13  4  1  0
 27 15  1  0
 12  7  1  0
 24 19  1  0
M  END
>  <AAScore>  (1) 
140.66026927400543

>  <RootName>  (1) 
./4ZLY/04_DeltaGEst/trajectory_01/rank_00/lead_0135

$$$$
