confid_7
     RDKit          3D

 28 32  0  0  0  0  0  0  0  0999 V2000
   24.6900   26.1200   35.5300 N   0  0  0  0  0  0  0  0  0  0  0  0
   25.6600   25.6700   34.6600 C   0  0  0  0  0  0  0  0  0  0  0  0
   25.2400   25.0100   33.7200 O   0  0  0  0  0  0  0  0  0  0  0  0
   27.0300   26.2200   34.8800 C   0  0  0  0  0  0  0  0  0  0  0  0
   27.3500   26.7300   36.0700 N   0  0  0  0  0  0  0  0  0  0  0  0
   28.5700   27.1800   36.3300 N   0  0  0  0  0  0  0  0  0  0  0  0
   29.5300   27.1100   35.3900 C   0  0  0  0  0  0  0  0  0  0  0  0
   30.8300   27.5700   35.6500 C   0  0  0  0  0  0  0  0  0  0  0  0
   31.8500   27.5400   34.6900 C   0  0  0  0  0  0  0  0  0  0  0  0
   31.5100   27.1200   33.4000 C   0  0  0  0  0  0  0  0  0  0  0  0
   30.2200   26.6300   33.1100 C   0  0  0  0  0  0  0  0  0  0  0  0
   29.2400   26.6600   34.1000 C   0  0  0  0  0  0  0  0  0  0  0  0
   27.9300   26.2600   33.8100 C   0  0  0  0  0  0  0  0  0  0  0  0
   27.5200   25.7100   32.6100 N   0  0  0  0  0  0  0  0  0  0  0  0
   31.1624   28.0092   36.9768 N   0  0  0  0  0  0  0  0  0  0  0  0
   30.6264   29.2906   37.4701 C   0  0  0  0  0  0  0  0  0  0  0  0
   31.7563   30.2189   37.9594 C   0  0  0  0  0  0  0  0  0  0  0  0
   32.4955   29.7200   39.1454 N   0  0  0  0  0  0  0  0  0  0  0  0
   32.0496   28.5588   39.8816 C   0  0  0  0  0  0  0  0  0  0  0  0
   31.8123   28.6454   41.2694 C   0  0  0  0  0  0  0  0  0  0  0  0
   31.3599   27.5357   41.9847 C   0  0  0  0  0  0  0  0  0  0  0  0
   31.1750   26.3142   41.3265 C   0  0  0  0  0  0  0  0  0  0  0  0
   31.4045   26.2125   39.9517 C   0  0  0  0  0  0  0  0  0  0  0  0
   31.8591   27.3253   39.2262 C   0  0  0  0  0  0  0  0  0  0  0  0
   32.1273   27.2200   37.7546 C   0  0  0  0  0  0  0  0  0  0  0  0
   33.5705   30.5487   39.7298 C   0  0  0  0  0  0  0  0  0  0  0  0
   34.9610   29.9391   39.5573 C   0  0  0  0  0  0  0  0  0  0  0  0
   34.5624   31.1686   38.7645 C   0  0  0  0  0  0  0  0  0  0  0  0
  1  2  1  0
  2  3  2  0
  2  4  1  0
  4  5  2  0
  5  6  1  0
  6  7  2  0
  7  8  1  0
  8  9  2  0
  9 10  1  0
 10 11  2  0
 11 12  1  0
 12 13  2  0
 13 14  1  0
  8 15  1  0
 15 16  1  0
 16 17  1  0
 17 18  1  0
 18 19  1  0
 19 20  2  0
 20 21  1  0
 21 22  2  0
 22 23  1  0
 23 24  2  0
 24 25  1  0
 18 26  1  0
 26 27  1  0
 27 28  1  0
 13  4  1  0
 25 15  1  0
 28 26  1  0
 12  7  1  0
 24 19  1  0
M  END
>  <AAScore>  (1) 
24.38192223182242

>  <RootName>  (1) 
./4ZLY/04_DeltaGEst/trajectory_02/rank_01/lead_0178

$$$$
