confid_19
     RDKit          3D

 32 35  0  0  0  0  0  0  0  0999 V2000
   24.2000   26.2400   35.6900 N   0  0  0  0  0  0  0  0  0  0  0  0
   24.8500   26.2800   34.4800 C   0  0  0  0  0  0  0  0  0  0  0  0
   24.3100   25.7400   33.5400 O   0  0  0  0  0  0  0  0  0  0  0  0
   26.1800   26.9700   34.4700 C   0  0  0  0  0  0  0  0  0  0  0  0
   26.6500   27.6000   35.5500 N   0  0  0  0  0  0  0  0  0  0  0  0
   27.7900   28.2700   35.6200 N   0  0  0  0  0  0  0  0  0  0  0  0
   28.5400   28.3000   34.5100 C   0  0  0  0  0  0  0  0  0  0  0  0
   29.7700   28.9400   34.5600 C   0  0  0  0  0  0  0  0  0  0  0  0
   30.7000   28.8900   33.5000 C   0  0  0  0  0  0  0  0  0  0  0  0
   30.3700   28.1400   32.3700 C   0  0  0  0  0  0  0  0  0  0  0  0
   29.1200   27.5200   32.2800 C   0  0  0  0  0  0  0  0  0  0  0  0
   28.2100   27.6100   33.3300 C   0  0  0  0  0  0  0  0  0  0  0  0
   26.9700   26.9700   33.3100 C   0  0  0  0  0  0  0  0  0  0  0  0
   26.5300   26.2400   32.2200 N   0  0  0  0  0  0  0  0  0  0  0  0
   22.7821   26.4438   35.8442 C   0  0  0  0  0  0  0  0  0  0  0  0
   22.0435   26.6554   34.7932 N   0  0  0  0  0  0  0  0  0  0  0  0
   20.6543   26.9919   34.7754 C   0  0  0  0  0  0  0  0  0  0  0  0
   19.7691   26.1982   34.1576 C   0  0  0  0  0  0  0  0  0  0  0  0
   18.4524   26.7394   33.6740 C   0  0  0  0  0  0  0  0  0  0  0  0
   17.8653   25.9047   32.6067 N   0  0  0  0  0  0  0  0  0  0  0  0
   18.5646   24.7688   32.0452 C   0  0  0  0  0  0  0  0  0  0  0  0
   18.0721   24.1336   31.0784 O   0  0  0  0  0  0  0  0  0  0  0  0
   19.9072   24.3599   32.5774 C   0  0  0  0  0  0  0  0  0  0  0  0
   20.0238   24.8017   33.9619 N   0  0  0  0  0  0  0  0  0  0  0  0
   19.5895   23.8885   35.0329 C   0  0  0  0  0  0  0  0  0  0  0  0
   20.6425   22.8220   35.3877 C   0  0  0  0  0  0  0  0  0  0  0  0
   22.0814   23.3404   35.5862 C   0  0  0  0  0  0  0  0  0  0  0  0
   22.4571   23.7301   37.0399 C   0  0  0  0  0  0  0  0  0  0  0  0
   21.7018   24.9439   37.6453 C   0  0  0  0  0  0  0  0  0  0  0  0
   22.1949   26.3583   37.2356 C   0  0  0  0  0  0  0  0  0  0  0  0
   16.5407   26.2746   32.0933 C   0  0  0  0  0  0  0  0  0  0  0  0
   15.4741   25.3217   32.6201 C   0  0  0  0  0  0  0  0  0  0  0  0
  1  2  1  0
  2  3  2  0
  2  4  1  0
  4  5  2  0
  5  6  1  0
  6  7  2  0
  7  8  1  0
  8  9  2  0
  9 10  1  0
 10 11  2  0
 11 12  1  0
 12 13  2  0
 13 14  1  0
  1 15  1  0
 15 16  2  0
 16 17  1  0
 17 18  2  0
 18 19  1  0
 19 20  1  0
 20 21  1  0
 21 22  2  0
 21 23  1  0
 23 24  1  0
 24 25  1  0
 25 26  1  0
 26 27  1  0
 27 28  1  0
 28 29  1  0
 29 30  1  0
 20 31  1  0
 31 32  1  0
 13  4  1  0
 30 15  1  0
 12  7  1  0
 24 18  1  0
M  END
>  <AAScore>  (1) 
1875.6276042405127

>  <RootName>  (1) 
./4ZLY/04_DeltaGEst/trajectory_04/rank_00/lead_0332

$$$$
