confid_5
     RDKit          3D

 27 30  0  0  0  0  0  0  0  0999 V2000
   24.2000   26.2400   35.6900 N   0  0  0  0  0  0  0  0  0  0  0  0
   24.8500   26.2800   34.4800 C   0  0  0  0  0  0  0  0  0  0  0  0
   24.3100   25.7400   33.5400 O   0  0  0  0  0  0  0  0  0  0  0  0
   26.1800   26.9700   34.4700 C   0  0  0  0  0  0  0  0  0  0  0  0
   26.6500   27.6000   35.5500 N   0  0  0  0  0  0  0  0  0  0  0  0
   27.7900   28.2700   35.6200 N   0  0  0  0  0  0  0  0  0  0  0  0
   28.5400   28.3000   34.5100 C   0  0  0  0  0  0  0  0  0  0  0  0
   29.7700   28.9400   34.5600 C   0  0  0  0  0  0  0  0  0  0  0  0
   30.7000   28.8900   33.5000 C   0  0  0  0  0  0  0  0  0  0  0  0
   30.3700   28.1400   32.3700 C   0  0  0  0  0  0  0  0  0  0  0  0
   29.1200   27.5200   32.2800 C   0  0  0  0  0  0  0  0  0  0  0  0
   28.2100   27.6100   33.3300 C   0  0  0  0  0  0  0  0  0  0  0  0
   26.9700   26.9700   33.3100 C   0  0  0  0  0  0  0  0  0  0  0  0
   26.5300   26.2400   32.2200 N   0  0  0  0  0  0  0  0  0  0  0  0
   22.7748   26.1206   35.8516 C   0  0  0  0  0  0  0  0  0  0  0  0
   22.2872   25.5527   36.9865 N   0  0  0  0  0  0  0  0  0  0  0  0
   20.9555   25.4322   37.2249 C   0  0  0  0  0  0  0  0  0  0  0  0
   20.0214   25.9129   36.2962 C   0  0  0  0  0  0  0  0  0  0  0  0
   18.5384   25.7722   36.5775 C   0  0  0  0  0  0  0  0  0  0  0  0
   17.7538   27.0417   36.3294 C   0  0  0  0  0  0  0  0  0  0  0  0
   16.5374   27.0144   36.4404 O   0  0  0  0  0  0  0  0  0  0  0  0
   18.4294   28.3297   35.9165 C   0  0  0  0  0  0  0  0  0  0  0  0
   18.8645   28.3052   34.4997 N   0  0  0  0  0  0  0  0  0  0  0  0
   19.7127   29.4731   34.2106 C   0  0  0  0  0  0  0  0  0  0  0  0
   19.5283   27.0480   34.0724 C   0  0  0  0  0  0  0  0  0  0  0  0
   20.4957   26.5028   35.1032 C   0  0  0  0  0  0  0  0  0  0  0  0
   21.8771   26.6259   34.8966 C   0  0  0  0  0  0  0  0  0  0  0  0
  1  2  1  0
  2  3  2  0
  2  4  1  0
  4  5  2  0
  5  6  1  0
  6  7  2  0
  7  8  1  0
  8  9  2  0
  9 10  1  0
 10 11  2  0
 11 12  1  0
 12 13  2  0
 13 14  1  0
  1 15  1  0
 15 16  2  0
 16 17  1  0
 17 18  2  0
 18 19  1  0
 19 20  1  0
 20 21  2  0
 20 22  1  0
 22 23  1  0
 23 24  1  0
 23 25  1  0
 25 26  1  0
 26 27  2  0
 13  4  1  0
 27 15  1  0
 12  7  1  0
 26 18  1  0
M  END
>  <AAScore>  (1) 
258.95593203294646

>  <RootName>  (1) 
./4ZLY/04_DeltaGEst/trajectory_04/rank_00/lead_0408

$$$$
