confid_0
     RDKit          3D

 29 32  0  0  0  0  0  0  0  0999 V2000
   24.5500   26.3900   36.2500 N   0  0  0  0  0  0  0  0  0  0  0  0
   25.6000   26.1300   35.4000 C   0  0  0  0  0  0  0  0  0  0  0  0
   25.4300   25.4300   34.4200 O   0  0  0  0  0  0  0  0  0  0  0  0
   26.9800   26.6300   35.7100 C   0  0  0  0  0  0  0  0  0  0  0  0
   27.3200   26.8200   36.9800 N   0  0  0  0  0  0  0  0  0  0  0  0
   28.4700   27.4000   37.3100 N   0  0  0  0  0  0  0  0  0  0  0  0
   29.4000   27.6300   36.3700 C   0  0  0  0  0  0  0  0  0  0  0  0
   30.6600   28.0500   36.8000 C   0  0  0  0  0  0  0  0  0  0  0  0
   31.5700   28.3600   35.7800 C   0  0  0  0  0  0  0  0  0  0  0  0
   31.3700   28.1000   34.4300 C   0  0  0  0  0  0  0  0  0  0  0  0
   30.1200   27.5900   34.0500 C   0  0  0  0  0  0  0  0  0  0  0  0
   29.1500   27.3400   35.0300 C   0  0  0  0  0  0  0  0  0  0  0  0
   27.8800   26.8900   34.6600 C   0  0  0  0  0  0  0  0  0  0  0  0
   27.4800   26.6100   33.3700 N   0  0  0  0  0  0  0  0  0  0  0  0
   23.1640   26.2321   35.9025 C   0  0  0  0  0  0  0  0  0  0  0  0
   22.2786   25.8879   36.8710 N   0  0  0  0  0  0  0  0  0  0  0  0
   20.9527   25.7473   36.6241 C   0  0  0  0  0  0  0  0  0  0  0  0
   20.4315   25.9564   35.3354 C   0  0  0  0  0  0  0  0  0  0  0  0
   18.9209   25.8861   35.1779 C   0  0  0  0  0  0  0  0  0  0  0  0
   18.5399   25.3019   33.8715 N   0  0  0  0  0  0  0  0  0  0  0  0
   18.1309   23.8863   34.0088 C   0  0  0  0  0  0  0  0  0  0  0  0
   18.2334   23.1433   32.6781 C   0  0  0  0  0  0  0  0  0  0  0  0
   17.5667   26.1257   33.1059 C   0  0  0  0  0  0  0  0  0  0  0  0
   18.1485   26.4810   31.7176 C   0  0  0  0  0  0  0  0  0  0  0  0
   18.9925   27.6280   31.6478 O   0  0  0  0  0  0  0  0  0  0  0  0
   19.9136   27.7659   32.7177 C   0  0  0  0  0  0  0  0  0  0  0  0
   20.9049   26.5881   32.8618 C   0  0  0  0  0  0  0  0  0  0  0  0
   21.3313   26.3592   34.3017 C   0  0  0  0  0  0  0  0  0  0  0  0
   22.6972   26.4916   34.6069 C   0  0  0  0  0  0  0  0  0  0  0  0
  1  2  1  0
  2  3  2  0
  2  4  1  0
  4  5  2  0
  5  6  1  0
  6  7  2  0
  7  8  1  0
  8  9  2  0
  9 10  1  0
 10 11  2  0
 11 12  1  0
 12 13  2  0
 13 14  1  0
  1 15  1  0
 15 16  2  0
 16 17  1  0
 17 18  2  0
 18 19  1  0
 19 20  1  0
 20 21  1  0
 21 22  1  0
 20 23  1  0
 23 24  1  0
 24 25  1  0
 25 26  1  0
 26 27  1  0
 27 28  1  0
 28 29  2  0
 13  4  1  0
 29 15  1  0
 12  7  1  0
 28 18  1  0
M  END
>  <AAScore>  (1) 
1017.4724811215308

>  <RootName>  (1) 
./4ZLY/04_DeltaGEst/trajectory_01/rank_00/lead_0443

$$$$
