confid_1
     RDKit          3D

 29 32  0  0  0  0  0  0  0  0999 V2000
   24.2000   26.2400   35.6900 N   0  0  0  0  0  0  0  0  0  0  0  0
   24.8500   26.2800   34.4800 C   0  0  0  0  0  0  0  0  0  0  0  0
   24.3100   25.7400   33.5400 O   0  0  0  0  0  0  0  0  0  0  0  0
   26.1800   26.9700   34.4700 C   0  0  0  0  0  0  0  0  0  0  0  0
   26.6500   27.6000   35.5500 N   0  0  0  0  0  0  0  0  0  0  0  0
   27.7900   28.2700   35.6200 N   0  0  0  0  0  0  0  0  0  0  0  0
   28.5400   28.3000   34.5100 C   0  0  0  0  0  0  0  0  0  0  0  0
   29.7700   28.9400   34.5600 C   0  0  0  0  0  0  0  0  0  0  0  0
   30.7000   28.8900   33.5000 C   0  0  0  0  0  0  0  0  0  0  0  0
   30.3700   28.1400   32.3700 C   0  0  0  0  0  0  0  0  0  0  0  0
   29.1200   27.5200   32.2800 C   0  0  0  0  0  0  0  0  0  0  0  0
   28.2100   27.6100   33.3300 C   0  0  0  0  0  0  0  0  0  0  0  0
   26.9700   26.9700   33.3100 C   0  0  0  0  0  0  0  0  0  0  0  0
   26.5300   26.2400   32.2200 N   0  0  0  0  0  0  0  0  0  0  0  0
   30.1327   29.6917   35.7299 N   0  0  0  0  0  0  0  0  0  0  0  0
   31.2099   29.2130   36.6043 C   0  0  0  0  0  0  0  0  0  0  0  0
   32.2363   30.3290   36.8288 C   0  0  0  0  0  0  0  0  0  0  0  0
   31.5809   31.6193   37.0922 N   0  0  0  0  0  0  0  0  0  0  0  0
   32.3867   32.7959   37.2717 C   0  0  0  0  0  0  0  0  0  0  0  0
   33.3312   32.8504   38.3069 C   0  0  0  0  0  0  0  0  0  0  0  0
   34.1183   33.9904   38.4817 C   0  0  0  0  0  0  0  0  0  0  0  0
   33.9723   35.0836   37.6245 C   0  0  0  0  0  0  0  0  0  0  0  0
   33.0327   35.0425   36.5760 C   0  0  0  0  0  0  0  0  0  0  0  0
   32.8591   36.1111   35.6830 O   0  0  0  0  0  0  0  0  0  0  0  0
   33.5983   37.3275   35.7304 C   0  0  0  0  0  0  0  0  0  0  0  0
   32.2425   33.8964   36.4079 C   0  0  0  0  0  0  0  0  0  0  0  0
   31.3540   33.8437   35.3823 F   0  0  0  0  0  0  0  0  0  0  0  0
   30.1172   31.7051   37.1766 C   0  0  0  0  0  0  0  0  0  0  0  0
   29.4840   30.9870   35.9805 C   0  0  0  0  0  0  0  0  0  0  0  0
  1  2  1  0
  2  3  2  0
  2  4  1  0
  4  5  2  0
  5  6  1  0
  6  7  2  0
  7  8  1  0
  8  9  2  0
  9 10  1  0
 10 11  2  0
 11 12  1  0
 12 13  2  0
 13 14  1  0
  8 15  1  0
 15 16  1  0
 16 17  1  0
 17 18  1  0
 18 19  1  0
 19 20  2  0
 20 21  1  0
 21 22  2  0
 22 23  1  0
 23 24  1  0
 24 25  1  0
 23 26  2  0
 26 27  1  0
 18 28  1  0
 28 29  1  0
 13  4  1  0
 29 15  1  0
 12  7  1  0
 26 19  1  0
M  END
>  <AAScore>  (1) 
-7.519716680224161

>  <RootName>  (1) 
./4ZLY/04_DeltaGEst/trajectory_04/rank_01/lead_0142

$$$$
