confid_3
     RDKit          3D

 27 30  0  0  0  0  0  0  0  0999 V2000
   24.5700   26.8800   35.5900 N   0  0  0  0  0  0  0  0  0  0  0  0
   25.5000   26.4000   34.6900 C   0  0  0  0  0  0  0  0  0  0  0  0
   25.1700   25.5200   33.9100 O   0  0  0  0  0  0  0  0  0  0  0  0
   26.8400   27.0200   34.7400 C   0  0  0  0  0  0  0  0  0  0  0  0
   27.3800   27.2800   35.9400 N   0  0  0  0  0  0  0  0  0  0  0  0
   28.6200   27.7400   36.0300 N   0  0  0  0  0  0  0  0  0  0  0  0
   29.3800   28.0000   34.9600 C   0  0  0  0  0  0  0  0  0  0  0  0
   30.6700   28.5000   35.1300 C   0  0  0  0  0  0  0  0  0  0  0  0
   31.5400   28.6100   34.0300 C   0  0  0  0  0  0  0  0  0  0  0  0
   31.0900   28.2200   32.7700 C   0  0  0  0  0  0  0  0  0  0  0  0
   29.8000   27.7000   32.6000 C   0  0  0  0  0  0  0  0  0  0  0  0
   28.9600   27.5500   33.7100 C   0  0  0  0  0  0  0  0  0  0  0  0
   27.6600   27.0300   33.5900 C   0  0  0  0  0  0  0  0  0  0  0  0
   27.1600   26.7400   32.3400 N   0  0  0  0  0  0  0  0  0  0  0  0
   23.4303   26.1761   36.1256 C   0  0  0  0  0  0  0  0  0  0  0  0
   22.7517   26.7718   37.0661 N   0  0  0  0  0  0  0  0  0  0  0  0
   21.6098   26.2675   37.7670 C   0  0  0  0  0  0  0  0  0  0  0  0
   20.3771   26.2613   37.2316 C   0  0  0  0  0  0  0  0  0  0  0  0
   19.1914   25.9318   38.0691 C   0  0  0  0  0  0  0  0  0  0  0  0
   17.9335   26.3667   37.3198 C   0  0  0  0  0  0  0  0  0  0  0  0
   18.3858   27.2523   35.7840 S   0  0  0  0  0  0  0  0  0  0  0  0
   20.0754   26.5782   35.7985 C   0  0  2  0  0  0  0  0  0  0  0  0
   20.1395   25.3017   34.9230 C   0  0  0  0  0  0  0  0  0  0  0  0
   21.2983   25.3202   33.9703 C   0  0  0  0  0  0  0  0  0  0  0  0
   21.1211   25.7666   32.8029 O   0  0  0  0  0  0  0  0  0  0  0  0
   22.5635   24.8378   34.3229 O   0  0  0  0  0  0  0  0  0  0  0  0
   23.0705   24.7815   35.6538 C   0  0  0  0  0  0  0  0  0  0  0  0
  1  2  1  0
  2  3  2  0
  2  4  1  0
  4  5  2  0
  5  6  1  0
  6  7  2  0
  7  8  1  0
  8  9  2  0
  9 10  1  0
 10 11  2  0
 11 12  1  0
 12 13  2  0
 13 14  1  0
  1 15  1  0
 15 16  2  0
 16 17  1  0
 17 18  2  0
 18 19  1  0
 19 20  1  0
 20 21  1  0
 21 22  1  0
 22 23  1  6
 23 24  1  0
 24 25  2  0
 24 26  1  0
 26 27  1  0
 13  4  1  0
 27 15  1  0
 12  7  1  0
 22 18  1  0
M  END
>  <AAScore>  (1) 
409.2295581189993

>  <RootName>  (1) 
./4ZLY/04_DeltaGEst/trajectory_05/rank_00/lead_0032

$$$$
