confid_10
     RDKit          3D

 27 30  0  0  0  0  0  0  0  0999 V2000
   24.6900   26.1200   35.5300 N   0  0  0  0  0  0  0  0  0  0  0  0
   25.6600   25.6700   34.6600 C   0  0  0  0  0  0  0  0  0  0  0  0
   25.2400   25.0100   33.7200 O   0  0  0  0  0  0  0  0  0  0  0  0
   27.0300   26.2200   34.8800 C   0  0  0  0  0  0  0  0  0  0  0  0
   27.3500   26.7300   36.0700 N   0  0  0  0  0  0  0  0  0  0  0  0
   28.5700   27.1800   36.3300 N   0  0  0  0  0  0  0  0  0  0  0  0
   29.5300   27.1100   35.3900 C   0  0  0  0  0  0  0  0  0  0  0  0
   30.8300   27.5700   35.6500 C   0  0  0  0  0  0  0  0  0  0  0  0
   31.8500   27.5400   34.6900 C   0  0  0  0  0  0  0  0  0  0  0  0
   31.5100   27.1200   33.4000 C   0  0  0  0  0  0  0  0  0  0  0  0
   30.2200   26.6300   33.1100 C   0  0  0  0  0  0  0  0  0  0  0  0
   29.2400   26.6600   34.1000 C   0  0  0  0  0  0  0  0  0  0  0  0
   27.9300   26.2600   33.8100 C   0  0  0  0  0  0  0  0  0  0  0  0
   27.5200   25.7100   32.6100 N   0  0  0  0  0  0  0  0  0  0  0  0
   31.1471   28.0595   36.9661 N   0  0  0  0  0  0  0  0  0  0  0  0
   31.1830   27.1399   38.0989 C   0  0  0  0  0  0  0  0  0  0  0  0
   30.4493   27.7698   39.2754 C   0  0  0  0  0  0  0  0  0  0  0  0
   30.9052   29.1919   39.5442 C   0  0  0  0  0  0  0  0  0  0  0  0
   30.6611   29.7874   40.8091 C   0  0  0  0  0  0  0  0  0  0  0  0
   31.0751   31.1053   41.0466 C   0  0  0  0  0  0  0  0  0  0  0  0
   31.6900   31.8486   40.0447 C   0  0  0  0  0  0  0  0  0  0  0  0
   31.9011   31.2953   38.7808 C   0  0  0  0  0  0  0  0  0  0  0  0
   32.5417   32.1098   37.7743 C   0  0  0  0  0  0  0  0  0  0  0  0
   33.0550   32.7621   36.9678 N   0  0  0  0  0  0  0  0  0  0  0  0
   31.4972   29.9681   38.5089 C   0  0  0  0  0  0  0  0  0  0  0  0
   31.7496   29.3837   37.1292 C   0  0  0  0  0  0  0  0  0  0  0  0
   29.9896   29.0285   41.9255 C   0  0  0  0  0  0  0  0  0  0  0  0
  1  2  1  0
  2  3  2  0
  2  4  1  0
  4  5  2  0
  5  6  1  0
  6  7  2  0
  7  8  1  0
  8  9  2  0
  9 10  1  0
 10 11  2  0
 11 12  1  0
 12 13  2  0
 13 14  1  0
  8 15  1  0
 15 16  1  0
 16 17  1  0
 17 18  1  0
 18 19  2  0
 19 20  1  0
 20 21  2  0
 21 22  1  0
 22 23  1  0
 23 24  3  0
 22 25  2  0
 25 26  1  0
 19 27  1  0
 13  4  1  0
 26 15  1  0
 12  7  1  0
 25 18  1  0
M  END
>  <AAScore>  (1) 
-7.452142389851

>  <RootName>  (1) 
./4ZLY/04_DeltaGEst/trajectory_02/rank_01/lead_0432

$$$$
