confid_7
     RDKit          3D

 27 30  0  0  0  0  0  0  0  0999 V2000
   24.6900   26.1200   35.5300 N   0  0  0  0  0  0  0  0  0  0  0  0
   25.6600   25.6700   34.6600 C   0  0  0  0  0  0  0  0  0  0  0  0
   25.2400   25.0100   33.7200 O   0  0  0  0  0  0  0  0  0  0  0  0
   27.0300   26.2200   34.8800 C   0  0  0  0  0  0  0  0  0  0  0  0
   27.3500   26.7300   36.0700 N   0  0  0  0  0  0  0  0  0  0  0  0
   28.5700   27.1800   36.3300 N   0  0  0  0  0  0  0  0  0  0  0  0
   29.5300   27.1100   35.3900 C   0  0  0  0  0  0  0  0  0  0  0  0
   30.8300   27.5700   35.6500 C   0  0  0  0  0  0  0  0  0  0  0  0
   31.8500   27.5400   34.6900 C   0  0  0  0  0  0  0  0  0  0  0  0
   31.5100   27.1200   33.4000 C   0  0  0  0  0  0  0  0  0  0  0  0
   30.2200   26.6300   33.1100 C   0  0  0  0  0  0  0  0  0  0  0  0
   29.2400   26.6600   34.1000 C   0  0  0  0  0  0  0  0  0  0  0  0
   27.9300   26.2600   33.8100 C   0  0  0  0  0  0  0  0  0  0  0  0
   27.5200   25.7100   32.6100 N   0  0  0  0  0  0  0  0  0  0  0  0
   23.3445   26.4520   35.1419 C   0  0  0  0  0  0  0  0  0  0  0  0
   22.3936   26.3129   36.0220 N   0  0  0  0  0  0  0  0  0  0  0  0
   21.0209   26.6414   35.7758 C   0  0  0  0  0  0  0  0  0  0  0  0
   20.5493   27.8920   35.6206 C   0  0  0  0  0  0  0  0  0  0  0  0
   19.1921   27.9799   35.2686 O   0  0  0  0  0  0  0  0  0  0  0  0
   18.5524   29.1795   34.8462 C   0  0  0  0  0  0  0  0  0  0  0  0
   19.0728   30.3669   35.6407 C   0  0  0  0  0  0  0  0  0  0  0  0
   20.5892   30.4489   35.4732 C   0  0  0  0  0  0  0  0  0  0  0  0
   21.3371   29.1751   35.9773 C   0  0  1  0  0  0  0  0  0  0  0  0
   21.4422   29.2525   37.3820 O   0  0  0  0  0  0  0  0  0  0  0  0
   22.7962   29.2381   35.4254 C   0  0  0  0  0  0  0  0  0  0  0  0
   23.0168   28.7086   33.9883 C   0  0  0  0  0  0  0  0  0  0  0  0
   23.0702   27.1716   33.8331 C   0  0  0  0  0  0  0  0  0  0  0  0
  1  2  1  0
  2  3  2  0
  2  4  1  0
  4  5  2  0
  5  6  1  0
  6  7  2  0
  7  8  1  0
  8  9  2  0
  9 10  1  0
 10 11  2  0
 11 12  1  0
 12 13  2  0
 13 14  1  0
  1 15  1  0
 15 16  2  0
 16 17  1  0
 17 18  2  0
 18 19  1  0
 19 20  1  0
 20 21  1  0
 21 22  1  0
 22 23  1  0
 23 24  1  1
 23 25  1  0
 25 26  1  0
 26 27  1  0
 13  4  1  0
 27 15  1  0
 12  7  1  0
 23 18  1  0
M  END
>  <AAScore>  (1) 
715.765999060268

>  <RootName>  (1) 
./4ZLY/04_DeltaGEst/trajectory_02/rank_00/lead_0167

$$$$
