confid_10
     RDKit          3D

 29 33  0  0  0  0  0  0  0  0999 V2000
   24.2000   26.2400   35.6900 N   0  0  0  0  0  0  0  0  0  0  0  0
   24.8500   26.2800   34.4800 C   0  0  0  0  0  0  0  0  0  0  0  0
   24.3100   25.7400   33.5400 O   0  0  0  0  0  0  0  0  0  0  0  0
   26.1800   26.9700   34.4700 C   0  0  0  0  0  0  0  0  0  0  0  0
   26.6500   27.6000   35.5500 N   0  0  0  0  0  0  0  0  0  0  0  0
   27.7900   28.2700   35.6200 N   0  0  0  0  0  0  0  0  0  0  0  0
   28.5400   28.3000   34.5100 C   0  0  0  0  0  0  0  0  0  0  0  0
   29.7700   28.9400   34.5600 C   0  0  0  0  0  0  0  0  0  0  0  0
   30.7000   28.8900   33.5000 C   0  0  0  0  0  0  0  0  0  0  0  0
   30.3700   28.1400   32.3700 C   0  0  0  0  0  0  0  0  0  0  0  0
   29.1200   27.5200   32.2800 C   0  0  0  0  0  0  0  0  0  0  0  0
   28.2100   27.6100   33.3300 C   0  0  0  0  0  0  0  0  0  0  0  0
   26.9700   26.9700   33.3100 C   0  0  0  0  0  0  0  0  0  0  0  0
   26.5300   26.2400   32.2200 N   0  0  0  0  0  0  0  0  0  0  0  0
   30.1359   29.6891   35.7329 N   0  0  0  0  0  0  0  0  0  0  0  0
   29.4068   30.9242   36.0623 C   0  0  0  0  0  0  0  0  0  0  0  0
   30.2653   31.8789   36.9075 C   0  0  0  0  0  0  0  0  0  0  0  0
   31.7341   31.8289   36.4350 C   0  0  0  0  0  0  0  0  0  0  0  0
   31.9771   32.5506   35.1307 C   0  0  0  0  0  0  0  0  0  0  0  0
   32.8218   33.6173   35.6977 N   0  0  0  0  0  0  0  0  0  0  0  0
   33.5173   34.7663   35.2179 C   0  0  0  0  0  0  0  0  0  0  0  0
   34.2443   35.5746   36.1004 C   0  0  0  0  0  0  0  0  0  0  0  0
   34.9165   36.6941   35.6053 C   0  0  0  0  0  0  0  0  0  0  0  0
   34.8567   36.9938   34.2428 C   0  0  0  0  0  0  0  0  0  0  0  0
   34.1214   36.1642   33.3927 C   0  0  0  0  0  0  0  0  0  0  0  0
   33.4734   35.0784   33.8938 N   0  0  0  0  0  0  0  0  0  0  0  0
   32.6006   32.9313   36.9851 C   0  0  0  0  0  0  0  0  0  0  0  0
   32.3681   30.4118   36.5305 C   0  0  0  0  0  0  0  0  0  0  0  0
   31.3102   29.2947   36.5205 C   0  0  0  0  0  0  0  0  0  0  0  0
  1  2  1  0
  2  3  2  0
  2  4  1  0
  4  5  2  0
  5  6  1  0
  6  7  2  0
  7  8  1  0
  8  9  2  0
  9 10  1  0
 10 11  2  0
 11 12  1  0
 12 13  2  0
 13 14  1  0
  8 15  1  0
 15 16  1  0
 16 17  1  0
 17 18  1  0
 18 19  1  0
 19 20  1  0
 20 21  1  0
 21 22  2  0
 22 23  1  0
 23 24  2  0
 24 25  1  0
 25 26  2  0
 20 27  1  0
 18 28  1  0
 28 29  1  0
 13  4  1  0
 29 15  1  0
 12  7  1  0
 27 18  1  0
 26 21  1  0
M  END
>  <AAScore>  (1) 
-8.684929572268405

>  <RootName>  (1) 
./4ZLY/04_DeltaGEst/trajectory_04/rank_01/lead_0398

$$$$
