confid_4
     RDKit          3D

 29 32  0  0  0  0  0  0  0  0999 V2000
   24.5500   26.3900   36.2500 N   0  0  0  0  0  0  0  0  0  0  0  0
   25.6000   26.1300   35.4000 C   0  0  0  0  0  0  0  0  0  0  0  0
   25.4300   25.4300   34.4200 O   0  0  0  0  0  0  0  0  0  0  0  0
   26.9800   26.6300   35.7100 C   0  0  0  0  0  0  0  0  0  0  0  0
   27.3200   26.8200   36.9800 N   0  0  0  0  0  0  0  0  0  0  0  0
   28.4700   27.4000   37.3100 N   0  0  0  0  0  0  0  0  0  0  0  0
   29.4000   27.6300   36.3700 C   0  0  0  0  0  0  0  0  0  0  0  0
   30.6600   28.0500   36.8000 C   0  0  0  0  0  0  0  0  0  0  0  0
   31.5700   28.3600   35.7800 C   0  0  0  0  0  0  0  0  0  0  0  0
   31.3700   28.1000   34.4300 C   0  0  0  0  0  0  0  0  0  0  0  0
   30.1200   27.5900   34.0500 C   0  0  0  0  0  0  0  0  0  0  0  0
   29.1500   27.3400   35.0300 C   0  0  0  0  0  0  0  0  0  0  0  0
   27.8800   26.8900   34.6600 C   0  0  0  0  0  0  0  0  0  0  0  0
   27.4800   26.6100   33.3700 N   0  0  0  0  0  0  0  0  0  0  0  0
   23.2059   25.8925   36.0895 C   0  0  0  0  0  0  0  0  0  0  0  0
   22.8783   25.0804   35.0504 N   0  0  0  0  0  0  0  0  0  0  0  0
   21.6248   24.5904   34.8799 C   0  0  0  0  0  0  0  0  0  0  0  0
   20.5969   24.9109   35.7828 C   0  0  0  0  0  0  0  0  0  0  0  0
   19.2438   24.2565   35.5764 C   0  0  0  0  0  0  0  0  0  0  0  0
   19.2581   22.8868   36.1592 N   0  0  0  0  0  0  0  0  0  0  0  0
   19.2533   21.8734   35.0824 C   0  0  0  0  0  0  0  0  0  0  0  0
   18.1646   22.6538   37.1522 C   0  0  1  0  0  0  0  0  0  0  0  0
   18.2201   21.2239   37.7334 C   0  0  0  0  0  0  0  0  0  0  0  0
   18.2461   23.6614   38.3248 C   0  0  0  0  0  0  0  0  0  0  0  0
   19.6032   23.9058   38.6465 O   0  0  0  0  0  0  0  0  0  0  0  0
   19.7916   25.2379   39.0792 C   0  0  0  0  0  0  0  0  0  0  0  0
   19.8824   26.2174   37.8979 C   0  0  0  0  0  0  0  0  0  0  0  0
   20.9029   25.7778   36.8689 C   0  0  0  0  0  0  0  0  0  0  0  0
   22.2192   26.2475   37.0148 C   0  0  0  0  0  0  0  0  0  0  0  0
  1  2  1  0
  2  3  2  0
  2  4  1  0
  4  5  2  0
  5  6  1  0
  6  7  2  0
  7  8  1  0
  8  9  2  0
  9 10  1  0
 10 11  2  0
 11 12  1  0
 12 13  2  0
 13 14  1  0
  1 15  1  0
 15 16  2  0
 16 17  1  0
 17 18  2  0
 18 19  1  0
 19 20  1  0
 20 21  1  0
 20 22  1  0
 22 23  1  1
 22 24  1  0
 24 25  1  0
 25 26  1  0
 26 27  1  0
 27 28  1  0
 28 29  2  0
 13  4  1  0
 29 15  1  0
 12  7  1  0
 28 18  1  0
M  END
>  <AAScore>  (1) 
1791.9499411670113

>  <RootName>  (1) 
./4ZLY/04_DeltaGEst/trajectory_01/rank_00/lead_0211

$$$$
