confid_5
     RDKit          3D

 27 31  0  0  0  0  0  0  0  0999 V2000
   25.3300   26.2600   34.7600 N   0  0  0  0  0  0  0  0  0  0  0  0
   26.1200   25.9200   33.6900 C   0  0  0  0  0  0  0  0  0  0  0  0
   25.6300   25.1100   32.9400 O   0  0  0  0  0  0  0  0  0  0  0  0
   27.5200   26.3800   33.4600 C   0  0  0  0  0  0  0  0  0  0  0  0
   28.1600   26.6300   34.6100 N   0  0  0  0  0  0  0  0  0  0  0  0
   29.4800   26.8500   34.5700 N   0  0  0  0  0  0  0  0  0  0  0  0
   30.1900   26.7800   33.4400 C   0  0  0  0  0  0  0  0  0  0  0  0
   31.5600   27.0500   33.5000 C   0  0  0  0  0  0  0  0  0  0  0  0
   32.2700   27.2400   32.3100 C   0  0  0  0  0  0  0  0  0  0  0  0
   31.6100   27.2500   31.0800 C   0  0  0  0  0  0  0  0  0  0  0  0
   30.2700   26.8700   31.0600 C   0  0  0  0  0  0  0  0  0  0  0  0
   29.5100   26.6900   32.2300 C   0  0  0  0  0  0  0  0  0  0  0  0
   28.1400   26.4100   32.2000 C   0  0  0  0  0  0  0  0  0  0  0  0
   27.4300   26.1300   31.0500 N   0  0  0  0  0  0  0  0  0  0  0  0
   26.5199   27.1358   30.4936 C   0  0  0  0  0  0  0  0  0  0  0  0
   26.6336   27.1511   28.9673 C   0  0  0  0  0  0  0  0  0  0  0  0
   26.5352   25.7947   28.4012 N   0  0  0  0  0  0  0  0  0  0  0  0
   26.2824   25.6342   26.9886 C   0  0  0  0  0  0  0  0  0  0  0  0
   25.3612   24.6237   26.5309 C   0  0  0  0  0  0  0  0  0  0  0  0
   25.0784   24.4298   25.1559 C   0  0  0  0  0  0  0  0  0  0  0  0
   25.7414   25.2741   24.2927 C   0  0  0  0  0  0  0  0  0  0  0  0
   26.0100   25.7111   22.9571 C   0  0  0  0  0  0  0  0  0  0  0  0
   26.9197   26.7173   23.3634 N   0  0  0  0  0  0  0  0  0  0  0  0
   26.6355   26.2627   24.7242 C   0  0  0  0  0  0  0  0  0  0  0  0
   26.9392   26.4852   26.0511 C   0  0  0  0  0  0  0  0  0  0  0  0
   26.5514   24.6205   29.2879 C   0  0  0  0  0  0  0  0  0  0  0  0
   27.5669   24.8094   30.4201 C   0  0  0  0  0  0  0  0  0  0  0  0
  1  2  1  0
  2  3  2  0
  2  4  1  0
  4  5  2  0
  5  6  1  0
  6  7  2  0
  7  8  1  0
  8  9  2  0
  9 10  1  0
 10 11  2  0
 11 12  1  0
 12 13  2  0
 13 14  1  0
 14 15  1  0
 15 16  1  0
 16 17  1  0
 17 18  1  0
 18 19  2  0
 19 20  1  0
 20 21  2  0
 21 22  1  0
 22 23  1  0
 23 24  1  0
 24 25  2  0
 17 26  1  0
 26 27  1  0
 13  4  1  0
 27 14  1  0
 12  7  1  0
 25 18  1  0
 24 21  1  0
M  END
>  <AAScore>  (1) 
2.4664434045362813

>  <RootName>  (1) 
./4ZLY/04_DeltaGEst/trajectory_03/rank_01/lead_0139

$$$$
