confid_4
     RDKit          3D

 30 34  0  0  0  0  0  0  0  0999 V2000
   24.5500   26.3900   36.2500 N   0  0  0  0  0  0  0  0  0  0  0  0
   25.6000   26.1300   35.4000 C   0  0  0  0  0  0  0  0  0  0  0  0
   25.4300   25.4300   34.4200 O   0  0  0  0  0  0  0  0  0  0  0  0
   26.9800   26.6300   35.7100 C   0  0  0  0  0  0  0  0  0  0  0  0
   27.3200   26.8200   36.9800 N   0  0  0  0  0  0  0  0  0  0  0  0
   28.4700   27.4000   37.3100 N   0  0  0  0  0  0  0  0  0  0  0  0
   29.4000   27.6300   36.3700 C   0  0  0  0  0  0  0  0  0  0  0  0
   30.6600   28.0500   36.8000 C   0  0  0  0  0  0  0  0  0  0  0  0
   31.5700   28.3600   35.7800 C   0  0  0  0  0  0  0  0  0  0  0  0
   31.3700   28.1000   34.4300 C   0  0  0  0  0  0  0  0  0  0  0  0
   30.1200   27.5900   34.0500 C   0  0  0  0  0  0  0  0  0  0  0  0
   29.1500   27.3400   35.0300 C   0  0  0  0  0  0  0  0  0  0  0  0
   27.8800   26.8900   34.6600 C   0  0  0  0  0  0  0  0  0  0  0  0
   27.4800   26.6100   33.3700 N   0  0  0  0  0  0  0  0  0  0  0  0
   23.2754   25.7162   36.2066 C   0  0  0  0  0  0  0  0  0  0  0  0
   23.2264   24.5113   35.6986 N   0  0  0  0  0  0  0  0  0  0  0  0
   22.0763   23.6891   35.4865 C   0  0  0  0  0  0  0  0  0  0  0  0
   21.0712   24.0858   34.6952 C   0  0  0  0  0  0  0  0  0  0  0  0
   21.0339   25.4922   34.2042 C   0  0  0  0  0  0  0  0  0  0  0  0
   20.2421   26.1752   35.2114 N   0  0  0  0  0  0  0  0  0  0  0  0
   18.8450   25.6912   35.3804 C   0  0  0  0  0  0  0  0  0  0  0  0
   18.5916   24.3162   34.6913 C   0  0  0  0  0  0  0  0  0  0  0  0
   19.7812   23.4484   34.7792 N   0  0  0  0  0  0  0  0  0  0  0  0
   19.6382   22.0030   34.9652 C   0  0  0  0  0  0  0  0  0  0  0  0
   20.9136   26.7346   36.3673 C   0  0  0  0  0  0  0  0  0  0  0  0
   20.3157   27.6297   37.2509 C   0  0  0  0  0  0  0  0  0  0  0  0
   21.1688   27.7688   38.3197 C   0  0  0  0  0  0  0  0  0  0  0  0
   22.2670   26.9851   38.0439 C   0  0  0  0  0  0  0  0  0  0  0  0
   22.1369   26.3517   36.8535 N   0  0  0  0  0  0  0  0  0  0  0  0
   19.0015   28.3346   37.1045 C   0  0  0  0  0  0  0  0  0  0  0  0
  1  2  1  0
  2  3  2  0
  2  4  1  0
  4  5  2  0
  5  6  1  0
  6  7  2  0
  7  8  1  0
  8  9  2  0
  9 10  1  0
 10 11  2  0
 11 12  1  0
 12 13  2  0
 13 14  1  0
  1 15  1  0
 15 16  2  0
 16 17  1  0
 17 18  2  0
 18 19  1  0
 19 20  1  0
 20 21  1  0
 21 22  1  0
 22 23  1  0
 23 24  1  0
 20 25  1  0
 25 26  2  0
 26 27  1  0
 27 28  2  0
 28 29  1  0
 26 30  1  0
 13  4  1  0
 29 15  1  0
 12  7  1  0
 23 18  1  0
 29 25  1  0
M  END
>  <AAScore>  (1) 
59949.54555131431

>  <RootName>  (1) 
./4ZLY/04_DeltaGEst/trajectory_01/rank_00/lead_0382

$$$$
