confid_18
     RDKit          3D

 27 30  0  0  0  0  0  0  0  0999 V2000
   24.6900   26.1200   35.5300 N   0  0  0  0  0  0  0  0  0  0  0  0
   25.6600   25.6700   34.6600 C   0  0  0  0  0  0  0  0  0  0  0  0
   25.2400   25.0100   33.7200 O   0  0  0  0  0  0  0  0  0  0  0  0
   27.0300   26.2200   34.8800 C   0  0  0  0  0  0  0  0  0  0  0  0
   27.3500   26.7300   36.0700 N   0  0  0  0  0  0  0  0  0  0  0  0
   28.5700   27.1800   36.3300 N   0  0  0  0  0  0  0  0  0  0  0  0
   29.5300   27.1100   35.3900 C   0  0  0  0  0  0  0  0  0  0  0  0
   30.8300   27.5700   35.6500 C   0  0  0  0  0  0  0  0  0  0  0  0
   31.8500   27.5400   34.6900 C   0  0  0  0  0  0  0  0  0  0  0  0
   31.5100   27.1200   33.4000 C   0  0  0  0  0  0  0  0  0  0  0  0
   30.2200   26.6300   33.1100 C   0  0  0  0  0  0  0  0  0  0  0  0
   29.2400   26.6600   34.1000 C   0  0  0  0  0  0  0  0  0  0  0  0
   27.9300   26.2600   33.8100 C   0  0  0  0  0  0  0  0  0  0  0  0
   27.5200   25.7100   32.6100 N   0  0  0  0  0  0  0  0  0  0  0  0
   23.3144   26.3505   35.1782 C   0  0  0  0  0  0  0  0  0  0  0  0
   22.4093   26.6153   36.1570 N   0  0  0  0  0  0  0  0  0  0  0  0
   21.1049   26.8511   35.8635 C   0  0  0  0  0  0  0  0  0  0  0  0
   20.6679   26.8218   34.5354 C   0  0  0  0  0  0  0  0  0  0  0  0
   19.2316   27.1342   34.2013 C   0  0  0  0  0  0  0  0  0  0  0  0
   18.8532   26.6602   32.8574 N   0  0  0  0  0  0  0  0  0  0  0  0
   18.2939   25.2891   32.7738 C   0  0  0  0  0  0  0  0  0  0  0  0
   19.1066   24.2084   33.5170 C   0  0  0  0  0  0  0  0  0  0  0  0
   18.4633   22.8338   33.3505 C   0  0  0  0  0  0  0  0  0  0  0  0
   19.8208   27.0343   31.8079 C   0  0  0  0  0  0  0  0  0  0  0  0
   21.2339   26.5022   32.0805 C   0  0  0  0  0  0  0  0  0  0  0  0
   21.6199   26.5807   33.5308 C   0  0  0  0  0  0  0  0  0  0  0  0
   22.9121   26.3417   33.8780 N   0  0  0  0  0  0  0  0  0  0  0  0
  1  2  1  0
  2  3  2  0
  2  4  1  0
  4  5  2  0
  5  6  1  0
  6  7  2  0
  7  8  1  0
  8  9  2  0
  9 10  1  0
 10 11  2  0
 11 12  1  0
 12 13  2  0
 13 14  1  0
  1 15  1  0
 15 16  2  0
 16 17  1  0
 17 18  2  0
 18 19  1  0
 19 20  1  0
 20 21  1  0
 21 22  1  0
 22 23  1  0
 20 24  1  0
 24 25  1  0
 25 26  1  0
 26 27  2  0
 13  4  1  0
 27 15  1  0
 12  7  1  0
 26 18  1  0
M  END
>  <AAScore>  (1) 
133.90030593459434

>  <RootName>  (1) 
./4ZLY/04_DeltaGEst/trajectory_02/rank_00/lead_0460

$$$$
