confid_4
     RDKit          3D

 28 30  0  0  0  0  0  0  0  0999 V2000
   24.5700   26.8800   35.5900 N   0  0  0  0  0  0  0  0  0  0  0  0
   25.5000   26.4000   34.6900 C   0  0  0  0  0  0  0  0  0  0  0  0
   25.1700   25.5200   33.9100 O   0  0  0  0  0  0  0  0  0  0  0  0
   26.8400   27.0200   34.7400 C   0  0  0  0  0  0  0  0  0  0  0  0
   27.3800   27.2800   35.9400 N   0  0  0  0  0  0  0  0  0  0  0  0
   28.6200   27.7400   36.0300 N   0  0  0  0  0  0  0  0  0  0  0  0
   29.3800   28.0000   34.9600 C   0  0  0  0  0  0  0  0  0  0  0  0
   30.6700   28.5000   35.1300 C   0  0  0  0  0  0  0  0  0  0  0  0
   31.5400   28.6100   34.0300 C   0  0  0  0  0  0  0  0  0  0  0  0
   31.0900   28.2200   32.7700 C   0  0  0  0  0  0  0  0  0  0  0  0
   29.8000   27.7000   32.6000 C   0  0  0  0  0  0  0  0  0  0  0  0
   28.9600   27.5500   33.7100 C   0  0  0  0  0  0  0  0  0  0  0  0
   27.6600   27.0300   33.5900 C   0  0  0  0  0  0  0  0  0  0  0  0
   27.1600   26.7400   32.3400 N   0  0  0  0  0  0  0  0  0  0  0  0
   33.1741   29.2399   34.2198 S   0  0  0  0  0  6  0  0  0  0  0  0
   34.1410   28.1343   33.9024 O   0  0  0  0  0  0  0  0  0  0  0  0
   33.4074   29.6768   35.6396 O   0  0  0  0  0  0  0  0  0  0  0  0
   33.4308   30.5839   33.1247 N   0  0  0  0  0  0  0  0  0  0  0  0
   34.8033   31.1305   33.1870 C   0  0  0  0  0  0  0  0  0  0  0  0
   35.5163   31.0246   31.8215 C   0  0  0  0  0  0  0  0  0  0  0  0
   35.6639   29.5595   31.3384 C   0  0  0  0  0  0  0  0  0  0  0  0
   35.9516   29.4384   29.8256 C   0  0  0  0  0  0  0  0  0  0  0  0
   36.5873   30.7078   29.2494 C   0  0  0  0  0  0  0  0  0  0  0  0
   35.6779   31.9371   29.4443 C   0  0  0  0  0  0  0  0  0  0  0  0
   34.8391   31.8860   30.7393 C   0  0  0  0  0  0  0  0  0  0  0  0
   32.3474   31.5974   33.1189 C   0  0  0  0  0  0  0  0  0  0  0  0
   31.8781   32.1140   34.4987 C   0  0  0  0  0  0  0  0  0  0  0  0
   32.9243   32.9351   35.2475 C   0  0  0  0  0  0  0  0  0  0  0  0
  1  2  1  0
  2  3  2  0
  2  4  1  0
  4  5  2  0
  5  6  1  0
  6  7  2  0
  7  8  1  0
  8  9  2  0
  9 10  1  0
 10 11  2  0
 11 12  1  0
 12 13  2  0
 13 14  1  0
  9 15  1  0
 15 16  2  0
 15 17  2  0
 15 18  1  0
 18 19  1  0
 19 20  1  0
 20 21  1  0
 21 22  1  0
 22 23  1  0
 23 24  1  0
 24 25  1  0
 18 26  1  0
 26 27  1  0
 27 28  1  0
 13  4  1  0
 25 20  1  0
 12  7  1  0
M  END
>  <AAScore>  (1) 
-5.692346570283084

>  <RootName>  (1) 
./4ZLY/04_DeltaGEst/trajectory_05/rank_01/lead_0096

$$$$
