confid_12
     RDKit          3D

 29 33  0  0  0  0  0  0  0  0999 V2000
   25.3300   26.2600   34.7600 N   0  0  0  0  0  0  0  0  0  0  0  0
   26.1200   25.9200   33.6900 C   0  0  0  0  0  0  0  0  0  0  0  0
   25.6300   25.1100   32.9400 O   0  0  0  0  0  0  0  0  0  0  0  0
   27.5200   26.3800   33.4600 C   0  0  0  0  0  0  0  0  0  0  0  0
   28.1600   26.6300   34.6100 N   0  0  0  0  0  0  0  0  0  0  0  0
   29.4800   26.8500   34.5700 N   0  0  0  0  0  0  0  0  0  0  0  0
   30.1900   26.7800   33.4400 C   0  0  0  0  0  0  0  0  0  0  0  0
   31.5600   27.0500   33.5000 C   0  0  0  0  0  0  0  0  0  0  0  0
   32.2700   27.2400   32.3100 C   0  0  0  0  0  0  0  0  0  0  0  0
   31.6100   27.2500   31.0800 C   0  0  0  0  0  0  0  0  0  0  0  0
   30.2700   26.8700   31.0600 C   0  0  0  0  0  0  0  0  0  0  0  0
   29.5100   26.6900   32.2300 C   0  0  0  0  0  0  0  0  0  0  0  0
   28.1400   26.4100   32.2000 C   0  0  0  0  0  0  0  0  0  0  0  0
   27.4300   26.1300   31.0500 N   0  0  0  0  0  0  0  0  0  0  0  0
   24.0673   25.6550   35.0710 C   0  0  0  0  0  0  0  0  0  0  0  0
   23.0111   26.4236   35.0938 N   0  0  0  0  0  0  0  0  0  0  0  0
   21.7094   26.0374   35.5445 C   0  0  0  0  0  0  0  0  0  0  0  0
   21.1125   24.9696   35.0362 C   0  0  0  0  0  0  0  0  0  0  0  0
   19.9452   24.0723   35.3105 C   0  0  0  0  0  0  0  0  0  0  0  0
   20.2553   23.1523   34.3091 O   0  0  0  0  0  0  0  0  0  0  0  0
   21.3203   23.9733   33.9340 C   0  0  2  0  0  0  0  0  0  0  0  0
   22.6811   23.2503   33.9321 C   0  0  0  0  0  0  0  0  0  0  0  0
   23.4136   23.2363   35.2605 C   0  0  0  0  0  0  0  0  0  0  0  0
   24.0800   24.3205   35.7349 C   0  0  0  0  0  0  0  0  0  0  0  0
   24.9066   24.1874   36.9056 N   0  0  0  0  0  0  0  0  0  0  0  0
   24.8572   23.1559   37.6970 C   0  0  0  0  0  0  0  0  0  0  0  0
   25.6996   23.0877   38.8039 O   0  0  0  0  0  0  0  0  0  0  0  0
   23.8601   22.0635   37.4510 C   0  0  0  0  0  0  0  0  0  0  0  0
   23.6171   21.9001   35.9469 C   0  0  0  0  0  0  0  0  0  0  0  0
  1  2  1  0
  2  3  2  0
  2  4  1  0
  4  5  2  0
  5  6  1  0
  6  7  2  0
  7  8  1  0
  8  9  2  0
  9 10  1  0
 10 11  2  0
 11 12  1  0
 12 13  2  0
 13 14  1  0
  1 15  1  0
 15 16  2  0
 16 17  1  0
 17 18  2  0
 18 19  1  0
 19 20  1  0
 20 21  1  0
 21 22  1  1
 22 23  1  0
 23 24  2  0
 24 25  1  0
 25 26  2  0
 26 27  1  0
 26 28  1  0
 28 29  1  0
 13  4  1  0
 24 15  1  0
 12  7  1  0
 21 18  1  0
 29 23  1  0
M  END
>  <AAScore>  (1) 
5076.496706491253

>  <RootName>  (1) 
./4ZLY/04_DeltaGEst/trajectory_03/rank_00/lead_0181

$$$$
