confid_4
     RDKit          3D

 26 29  0  0  0  0  0  0  0  0999 V2000
   24.6900   26.1200   35.5300 N   0  0  0  0  0  0  0  0  0  0  0  0
   25.6600   25.6700   34.6600 C   0  0  0  0  0  0  0  0  0  0  0  0
   25.2400   25.0100   33.7200 O   0  0  0  0  0  0  0  0  0  0  0  0
   27.0300   26.2200   34.8800 C   0  0  0  0  0  0  0  0  0  0  0  0
   27.3500   26.7300   36.0700 N   0  0  0  0  0  0  0  0  0  0  0  0
   28.5700   27.1800   36.3300 N   0  0  0  0  0  0  0  0  0  0  0  0
   29.5300   27.1100   35.3900 C   0  0  0  0  0  0  0  0  0  0  0  0
   30.8300   27.5700   35.6500 C   0  0  0  0  0  0  0  0  0  0  0  0
   31.8500   27.5400   34.6900 C   0  0  0  0  0  0  0  0  0  0  0  0
   31.5100   27.1200   33.4000 C   0  0  0  0  0  0  0  0  0  0  0  0
   30.2200   26.6300   33.1100 C   0  0  0  0  0  0  0  0  0  0  0  0
   29.2400   26.6600   34.1000 C   0  0  0  0  0  0  0  0  0  0  0  0
   27.9300   26.2600   33.8100 C   0  0  0  0  0  0  0  0  0  0  0  0
   27.5200   25.7100   32.6100 N   0  0  0  0  0  0  0  0  0  0  0  0
   31.1947   28.0719   37.0000 C   0  0  0  0  0  0  0  0  0  0  0  0
   32.0436   29.1613   37.2532 C   0  0  0  0  0  0  0  0  0  0  0  0
   32.2129   29.3559   38.6207 C   0  0  0  0  0  0  0  0  0  0  0  0
   32.8763   30.3889   39.4343 C   0  0  0  0  0  0  0  0  0  0  0  0
   32.6498   29.9647   40.8474 N   0  0  0  0  0  0  0  0  0  0  0  0
   32.1869   31.0680   41.7135 C   0  0  0  0  0  0  0  0  0  0  0  0
   33.3534   31.9785   42.1225 C   0  0  0  0  0  0  0  0  0  0  0  0
   33.8852   32.6713   41.0085 O   0  0  0  0  0  0  0  0  0  0  0  0
   33.2856   33.9423   40.8857 C   0  0  0  0  0  0  0  0  0  0  0  0
   31.6770   28.8370   40.8224 C   0  0  0  0  0  0  0  0  0  0  0  0
   31.5618   28.4939   39.4005 C   0  0  0  0  0  0  0  0  0  0  0  0
   30.6816   27.4013   38.4867 S   0  0  0  0  0  0  0  0  0  0  0  0
  1  2  1  0
  2  3  2  0
  2  4  1  0
  4  5  2  0
  5  6  1  0
  6  7  2  0
  7  8  1  0
  8  9  2  0
  9 10  1  0
 10 11  2  0
 11 12  1  0
 12 13  2  0
 13 14  1  0
  8 15  1  0
 15 16  2  0
 16 17  1  0
 17 18  1  0
 18 19  1  0
 19 20  1  0
 20 21  1  0
 21 22  1  0
 22 23  1  0
 19 24  1  0
 24 25  1  0
 25 26  1  0
 13  4  1  0
 26 15  1  0
 12  7  1  0
 25 17  2  0
M  END
>  <AAScore>  (1) 
49.57911654352266

>  <RootName>  (1) 
./4ZLY/04_DeltaGEst/trajectory_02/rank_01/lead_0490

$$$$
