confid_10
     RDKit          3D

 28 30  0  0  0  0  0  0  0  0999 V2000
   24.5500   26.3900   36.2500 N   0  0  0  0  0  0  0  0  0  0  0  0
   25.6000   26.1300   35.4000 C   0  0  0  0  0  0  0  0  0  0  0  0
   25.4300   25.4300   34.4200 O   0  0  0  0  0  0  0  0  0  0  0  0
   26.9800   26.6300   35.7100 C   0  0  0  0  0  0  0  0  0  0  0  0
   27.3200   26.8200   36.9800 N   0  0  0  0  0  0  0  0  0  0  0  0
   28.4700   27.4000   37.3100 N   0  0  0  0  0  0  0  0  0  0  0  0
   29.4000   27.6300   36.3700 C   0  0  0  0  0  0  0  0  0  0  0  0
   30.6600   28.0500   36.8000 C   0  0  0  0  0  0  0  0  0  0  0  0
   31.5700   28.3600   35.7800 C   0  0  0  0  0  0  0  0  0  0  0  0
   31.3700   28.1000   34.4300 C   0  0  0  0  0  0  0  0  0  0  0  0
   30.1200   27.5900   34.0500 C   0  0  0  0  0  0  0  0  0  0  0  0
   29.1500   27.3400   35.0300 C   0  0  0  0  0  0  0  0  0  0  0  0
   27.8800   26.8900   34.6600 C   0  0  0  0  0  0  0  0  0  0  0  0
   27.4800   26.6100   33.3700 N   0  0  0  0  0  0  0  0  0  0  0  0
   30.9667   28.2954   38.1845 N   0  0  0  0  0  0  0  0  0  0  0  0
   31.2299   29.6664   38.6434 C   0  0  0  0  0  0  0  0  0  0  0  0
   29.9557   30.5188   38.5810 C   0  0  0  0  0  0  0  0  0  0  0  0
   28.8347   29.8616   39.2884 N   0  0  0  0  0  0  0  0  0  0  0  0
   27.5493   30.3833   38.7969 C   0  0  0  0  0  0  0  0  0  0  0  0
   28.9265   30.0741   40.7432 C   0  0  0  0  0  0  0  0  0  0  0  0
   31.1466   27.1560   39.0909 C   0  0  0  0  0  0  0  0  0  0  0  0
   32.4506   26.4687   38.7952 C   0  0  0  0  0  0  0  0  0  0  0  0
   33.6441   26.9496   39.3544 C   0  0  0  0  0  0  0  0  0  0  0  0
   34.8644   26.3454   39.0383 C   0  0  0  0  0  0  0  0  0  0  0  0
   34.9061   25.2523   38.1593 C   0  0  0  0  0  0  0  0  0  0  0  0
   33.7166   24.7928   37.5741 C   0  0  0  0  0  0  0  0  0  0  0  0
   32.4963   25.3961   37.8911 C   0  0  0  0  0  0  0  0  0  0  0  0
   36.2194   24.6311   37.7865 C   0  0  0  0  0  0  0  0  0  0  0  0
  1  2  1  0
  2  3  2  0
  2  4  1  0
  4  5  2  0
  5  6  1  0
  6  7  2  0
  7  8  1  0
  8  9  2  0
  9 10  1  0
 10 11  2  0
 11 12  1  0
 12 13  2  0
 13 14  1  0
  8 15  1  0
 15 16  1  0
 16 17  1  0
 17 18  1  0
 18 19  1  0
 18 20  1  0
 15 21  1  0
 21 22  1  0
 22 23  2  0
 23 24  1  0
 24 25  2  0
 25 26  1  0
 26 27  2  0
 25 28  1  0
 13  4  1  0
 27 22  1  0
 12  7  1  0
M  END
>  <AAScore>  (1) 
388.2158508054669

>  <RootName>  (1) 
./4ZLY/04_DeltaGEst/trajectory_01/rank_01/lead_0333

$$$$
