confid_4
     RDKit          3D

 30 33  0  0  0  0  0  0  0  0999 V2000
   25.3300   26.2600   34.7600 N   0  0  0  0  0  0  0  0  0  0  0  0
   26.1200   25.9200   33.6900 C   0  0  0  0  0  0  0  0  0  0  0  0
   25.6300   25.1100   32.9400 O   0  0  0  0  0  0  0  0  0  0  0  0
   27.5200   26.3800   33.4600 C   0  0  0  0  0  0  0  0  0  0  0  0
   28.1600   26.6300   34.6100 N   0  0  0  0  0  0  0  0  0  0  0  0
   29.4800   26.8500   34.5700 N   0  0  0  0  0  0  0  0  0  0  0  0
   30.1900   26.7800   33.4400 C   0  0  0  0  0  0  0  0  0  0  0  0
   31.5600   27.0500   33.5000 C   0  0  0  0  0  0  0  0  0  0  0  0
   32.2700   27.2400   32.3100 C   0  0  0  0  0  0  0  0  0  0  0  0
   31.6100   27.2500   31.0800 C   0  0  0  0  0  0  0  0  0  0  0  0
   30.2700   26.8700   31.0600 C   0  0  0  0  0  0  0  0  0  0  0  0
   29.5100   26.6900   32.2300 C   0  0  0  0  0  0  0  0  0  0  0  0
   28.1400   26.4100   32.2000 C   0  0  0  0  0  0  0  0  0  0  0  0
   27.4300   26.1300   31.0500 N   0  0  0  0  0  0  0  0  0  0  0  0
   27.5666   24.8093   30.4207 C   0  0  0  0  0  0  0  0  0  0  0  0
   26.5630   24.6232   29.2769 C   0  0  0  0  0  0  0  0  0  0  0  0
   26.5512   25.8032   28.3966 N   0  0  0  0  0  0  0  0  0  0  0  0
   26.3739   25.6709   26.9703 C   0  0  0  0  0  0  0  0  0  0  0  0
   26.7186   26.6189   26.2118 O   0  0  0  0  0  0  0  0  0  0  0  0
   25.8231   24.4094   26.3574 C   0  0  0  0  0  0  0  0  0  0  0  0
   25.1650   24.7026   25.0782 N   0  0  0  0  0  0  0  0  0  0  0  0
   24.7180   23.4616   24.4366 C   0  0  0  0  0  0  0  0  0  0  0  0
   24.1217   23.7735   23.0917 C   0  0  0  0  0  0  0  0  0  0  0  0
   22.7366   23.9675   22.9566 C   0  0  0  0  0  0  0  0  0  0  0  0
   22.1901   24.2948   21.7116 C   0  0  0  0  0  0  0  0  0  0  0  0
   23.0213   24.4386   20.5971 C   0  0  0  0  0  0  0  0  0  0  0  0
   24.4017   24.2607   20.7268 C   0  0  0  0  0  0  0  0  0  0  0  0
   24.9526   23.9351   21.9704 C   0  0  0  0  0  0  0  0  0  0  0  0
   26.6288   27.1566   28.9707 C   0  0  0  0  0  0  0  0  0  0  0  0
   26.5162   27.1337   30.4970 C   0  0  0  0  0  0  0  0  0  0  0  0
  1  2  1  0
  2  3  2  0
  2  4  1  0
  4  5  2  0
  5  6  1  0
  6  7  2  0
  7  8  1  0
  8  9  2  0
  9 10  1  0
 10 11  2  0
 11 12  1  0
 12 13  2  0
 13 14  1  0
 14 15  1  0
 15 16  1  0
 16 17  1  0
 17 18  1  0
 18 19  2  0
 18 20  1  0
 20 21  1  0
 21 22  1  0
 22 23  1  0
 23 24  2  0
 24 25  1  0
 25 26  2  0
 26 27  1  0
 27 28  2  0
 17 29  1  0
 29 30  1  0
 13  4  1  0
 30 14  1  0
 12  7  1  0
 28 23  1  0
M  END
>  <AAScore>  (1) 
2.4330664375705093

>  <RootName>  (1) 
./4ZLY/04_DeltaGEst/trajectory_03/rank_01/lead_0361

$$$$
