confid_15
     RDKit          3D

 25 27  0  0  0  0  0  0  0  0999 V2000
   24.5700   26.8800   35.5900 N   0  0  0  0  0  0  0  0  0  0  0  0
   25.5000   26.4000   34.6900 C   0  0  0  0  0  0  0  0  0  0  0  0
   25.1700   25.5200   33.9100 O   0  0  0  0  0  0  0  0  0  0  0  0
   26.8400   27.0200   34.7400 C   0  0  0  0  0  0  0  0  0  0  0  0
   27.3800   27.2800   35.9400 N   0  0  0  0  0  0  0  0  0  0  0  0
   28.6200   27.7400   36.0300 N   0  0  0  0  0  0  0  0  0  0  0  0
   29.3800   28.0000   34.9600 C   0  0  0  0  0  0  0  0  0  0  0  0
   30.6700   28.5000   35.1300 C   0  0  0  0  0  0  0  0  0  0  0  0
   31.5400   28.6100   34.0300 C   0  0  0  0  0  0  0  0  0  0  0  0
   31.0900   28.2200   32.7700 C   0  0  0  0  0  0  0  0  0  0  0  0
   29.8000   27.7000   32.6000 C   0  0  0  0  0  0  0  0  0  0  0  0
   28.9600   27.5500   33.7100 C   0  0  0  0  0  0  0  0  0  0  0  0
   27.6600   27.0300   33.5900 C   0  0  0  0  0  0  0  0  0  0  0  0
   27.1600   26.7400   32.3400 N   0  0  0  0  0  0  0  0  0  0  0  0
   33.1690   29.2563   34.2201 S   0  0  0  0  0  6  0  0  0  0  0  0
   33.4576   29.5127   35.6727 O   0  0  0  0  0  0  0  0  0  0  0  0
   34.1451   28.2299   33.7181 O   0  0  0  0  0  0  0  0  0  0  0  0
   33.3609   30.7642   33.2505 C   0  0  0  0  0  0  0  0  0  0  0  0
   32.9776   32.0115   33.9551 N   0  0  0  0  0  0  0  0  0  0  0  0
   33.9152   32.3758   35.0387 C   0  0  0  0  0  0  0  0  0  0  0  0
   34.1357   33.8937   35.0295 C   0  0  0  0  0  0  0  0  0  0  0  0
   35.2039   34.3861   34.0655 C   0  0  0  0  0  0  0  0  0  0  0  0
   35.4803   34.3657   35.5617 C   0  0  0  0  0  0  0  0  0  0  0  0
   31.5669   32.0642   34.3991 C   0  0  0  0  0  0  0  0  0  0  0  0
   30.6010   32.1122   33.2163 C   0  0  0  0  0  0  0  0  0  0  0  0
  1  2  1  0
  2  3  2  0
  2  4  1  0
  4  5  2  0
  5  6  1  0
  6  7  2  0
  7  8  1  0
  8  9  2  0
  9 10  1  0
 10 11  2  0
 11 12  1  0
 12 13  2  0
 13 14  1  0
  9 15  1  0
 15 16  2  0
 15 17  2  0
 15 18  1  0
 18 19  1  0
 19 20  1  0
 20 21  1  0
 21 22  1  0
 22 23  1  0
 19 24  1  0
 24 25  1  0
 13  4  1  0
 23 21  1  0
 12  7  1  0
M  END
>  <AAScore>  (1) 
-3.8051533028337463

>  <RootName>  (1) 
./4ZLY/04_DeltaGEst/trajectory_05/rank_01/lead_0456

$$$$
