confid_18
     RDKit          3D

 27 30  0  0  0  0  0  0  0  0999 V2000
   24.4800   26.1000   36.1300 N   0  0  0  0  0  0  0  0  0  0  0  0
   25.2500   26.2500   34.9900 C   0  0  0  0  0  0  0  0  0  0  0  0
   24.7400   25.7600   33.9900 O   0  0  0  0  0  0  0  0  0  0  0  0
   26.5900   26.8900   34.9600 C   0  0  0  0  0  0  0  0  0  0  0  0
   27.0600   27.2400   36.1600 N   0  0  0  0  0  0  0  0  0  0  0  0
   28.3000   27.7100   36.2400 N   0  0  0  0  0  0  0  0  0  0  0  0
   29.0500   27.9600   35.1500 C   0  0  0  0  0  0  0  0  0  0  0  0
   30.3400   28.4900   35.2600 C   0  0  0  0  0  0  0  0  0  0  0  0
   31.1100   28.8200   34.1400 C   0  0  0  0  0  0  0  0  0  0  0  0
   30.5200   28.6700   32.8800 C   0  0  0  0  0  0  0  0  0  0  0  0
   29.2900   28.0200   32.7700 C   0  0  0  0  0  0  0  0  0  0  0  0
   28.5200   27.7100   33.8900 C   0  0  0  0  0  0  0  0  0  0  0  0
   27.2700   27.0800   33.7600 C   0  0  0  0  0  0  0  0  0  0  0  0
   26.7500   26.8800   32.4900 N   0  0  0  0  0  0  0  0  0  0  0  0
   23.3797   25.1846   36.2486 C   0  0  0  0  0  0  0  0  0  0  0  0
   22.1698   25.5695   36.7090 N   0  0  0  0  0  0  0  0  0  0  0  0
   21.4342   24.4392   36.6897 C   0  0  0  0  0  0  0  0  0  0  0  0
   22.2130   23.3973   36.2347 C   0  0  0  0  0  0  0  0  0  0  0  0
   21.8035   21.9637   36.1115 C   0  0  0  0  0  0  0  0  0  0  0  0
   22.0326   21.4854   34.7426 N   0  0  0  0  0  0  0  0  0  0  0  0
   23.3759   21.2727   34.2687 C   0  0  0  0  0  0  0  0  0  0  0  0
   23.6941   20.1498   33.7922 O   0  0  0  0  0  0  0  0  0  0  0  0
   24.3798   22.3947   34.2245 C   0  0  0  0  0  0  0  0  0  0  0  0
   24.6025   23.0474   35.5908 C   0  0  0  0  0  0  0  0  0  0  0  0
   23.4439   23.8622   35.9650 N   0  0  0  0  0  0  0  0  0  0  0  0
   20.9042   21.0762   33.8961 C   0  0  0  0  0  0  0  0  0  0  0  0
   20.7638   22.0226   32.7090 C   0  0  0  0  0  0  0  0  0  0  0  0
  1  2  1  0
  2  3  2  0
  2  4  1  0
  4  5  2  0
  5  6  1  0
  6  7  2  0
  7  8  1  0
  8  9  2  0
  9 10  1  0
 10 11  2  0
 11 12  1  0
 12 13  2  0
 13 14  1  0
  1 15  1  0
 15 16  2  0
 16 17  1  0
 17 18  2  0
 18 19  1  0
 19 20  1  0
 20 21  1  0
 21 22  2  0
 21 23  1  0
 23 24  1  0
 24 25  1  0
 20 26  1  0
 26 27  1  0
 13  4  1  0
 25 15  1  0
 12  7  1  0
 25 18  1  0
M  END
>  <AAScore>  (1) 
2346.978699325848

>  <RootName>  (1) 
./4ZLY/04_DeltaGEst/trajectory_00/rank_00/lead_0424

$$$$
