confid_16
     RDKit          3D

 32 36  0  0  0  0  0  0  0  0999 V2000
   24.2000   26.2400   35.6900 N   0  0  0  0  0  0  0  0  0  0  0  0
   24.8500   26.2800   34.4800 C   0  0  0  0  0  0  0  0  0  0  0  0
   24.3100   25.7400   33.5400 O   0  0  0  0  0  0  0  0  0  0  0  0
   26.1800   26.9700   34.4700 C   0  0  0  0  0  0  0  0  0  0  0  0
   26.6500   27.6000   35.5500 N   0  0  0  0  0  0  0  0  0  0  0  0
   27.7900   28.2700   35.6200 N   0  0  0  0  0  0  0  0  0  0  0  0
   28.5400   28.3000   34.5100 C   0  0  0  0  0  0  0  0  0  0  0  0
   29.7700   28.9400   34.5600 C   0  0  0  0  0  0  0  0  0  0  0  0
   30.7000   28.8900   33.5000 C   0  0  0  0  0  0  0  0  0  0  0  0
   30.3700   28.1400   32.3700 C   0  0  0  0  0  0  0  0  0  0  0  0
   29.1200   27.5200   32.2800 C   0  0  0  0  0  0  0  0  0  0  0  0
   28.2100   27.6100   33.3300 C   0  0  0  0  0  0  0  0  0  0  0  0
   26.9700   26.9700   33.3100 C   0  0  0  0  0  0  0  0  0  0  0  0
   26.5300   26.2400   32.2200 N   0  0  0  0  0  0  0  0  0  0  0  0
   22.7694   26.1714   35.8218 C   0  0  0  0  0  0  0  0  0  0  0  0
   22.2746   25.7096   36.9383 N   0  0  0  0  0  0  0  0  0  0  0  0
   20.8811   25.6239   37.2526 C   0  0  0  0  0  0  0  0  0  0  0  0
   20.0657   24.9507   36.4561 C   0  0  0  0  0  0  0  0  0  0  0  0
   18.6049   24.7166   36.2222 C   0  0  0  0  0  0  0  0  0  0  0  0
   18.7828   24.0087   35.0343 O   0  0  0  0  0  0  0  0  0  0  0  0
   20.1589   24.0942   35.2282 C   0  0  1  0  0  0  0  0  0  0  0  0
   20.9043   24.7273   34.0376 C   0  0  0  0  0  0  0  0  0  0  0  0
   20.9800   26.2442   34.0630 C   0  0  0  0  0  0  0  0  0  0  0  0
   21.9210   26.8836   34.8189 C   0  0  0  0  0  0  0  0  0  0  0  0
   22.1949   28.2545   34.6960 O   0  0  0  0  0  0  0  0  0  0  0  0
   22.0443   29.0009   33.4948 C   0  0  0  0  0  0  0  0  0  0  0  0
   20.5805   29.3782   33.2697 C   0  0  0  0  0  0  0  0  0  0  0  0
   19.6519   28.2979   33.6665 N   0  0  0  0  0  0  0  0  0  0  0  0
   18.2363   28.6844   33.4077 C   0  0  0  0  0  0  0  0  0  0  0  0
   17.8022   28.5417   31.9342 C   0  0  0  0  0  0  0  0  0  0  0  0
   17.2889   27.9154   34.3345 C   0  0  0  0  0  0  0  0  0  0  0  0
   20.0503   26.9802   33.1181 C   0  0  0  0  0  0  0  0  0  0  0  0
  1  2  1  0
  2  3  2  0
  2  4  1  0
  4  5  2  0
  5  6  1  0
  6  7  2  0
  7  8  1  0
  8  9  2  0
  9 10  1  0
 10 11  2  0
 11 12  1  0
 12 13  2  0
 13 14  1  0
  1 15  1  0
 15 16  2  0
 16 17  1  0
 17 18  2  0
 18 19  1  0
 19 20  1  0
 20 21  1  0
 21 22  1  6
 22 23  1  0
 23 24  2  0
 24 25  1  0
 25 26  1  0
 26 27  1  0
 27 28  1  0
 28 29  1  0
 29 30  1  0
 29 31  1  0
 28 32  1  0
 13  4  1  0
 24 15  1  0
 12  7  1  0
 21 18  1  0
 32 23  1  0
M  END
>  <AAScore>  (1) 
9824.172439774004

>  <RootName>  (1) 
./4ZLY/04_DeltaGEst/trajectory_04/rank_00/lead_0339

$$$$
