confid_2
     RDKit          3D

 26 29  0  0  0  0  0  0  0  0999 V2000
   24.5500   26.3900   36.2500 N   0  0  0  0  0  0  0  0  0  0  0  0
   25.6000   26.1300   35.4000 C   0  0  0  0  0  0  0  0  0  0  0  0
   25.4300   25.4300   34.4200 O   0  0  0  0  0  0  0  0  0  0  0  0
   26.9800   26.6300   35.7100 C   0  0  0  0  0  0  0  0  0  0  0  0
   27.3200   26.8200   36.9800 N   0  0  0  0  0  0  0  0  0  0  0  0
   28.4700   27.4000   37.3100 N   0  0  0  0  0  0  0  0  0  0  0  0
   29.4000   27.6300   36.3700 C   0  0  0  0  0  0  0  0  0  0  0  0
   30.6600   28.0500   36.8000 C   0  0  0  0  0  0  0  0  0  0  0  0
   31.5700   28.3600   35.7800 C   0  0  0  0  0  0  0  0  0  0  0  0
   31.3700   28.1000   34.4300 C   0  0  0  0  0  0  0  0  0  0  0  0
   30.1200   27.5900   34.0500 C   0  0  0  0  0  0  0  0  0  0  0  0
   29.1500   27.3400   35.0300 C   0  0  0  0  0  0  0  0  0  0  0  0
   27.8800   26.8900   34.6600 C   0  0  0  0  0  0  0  0  0  0  0  0
   27.4800   26.6100   33.3700 N   0  0  0  0  0  0  0  0  0  0  0  0
   30.9994   28.2772   38.2282 C   0  0  0  0  0  0  0  0  0  0  0  0
   30.9344   27.1658   39.1124 C   0  0  0  0  0  0  0  0  0  0  0  0
   31.2360   27.2340   40.4819 C   0  0  0  0  0  0  0  0  0  0  0  0
   31.1803   26.1683   41.3565 O   0  0  0  0  0  0  0  0  0  0  0  0
   31.5487   26.5758   42.6743 C   0  0  0  0  0  0  0  0  0  0  0  0
   30.4967   26.3524   43.5446 F   0  0  0  0  0  0  0  0  0  0  0  0
   32.6602   25.8646   43.0905 F   0  0  0  0  0  0  0  0  0  0  0  0
   31.8686   28.0872   42.5748 C   0  0  0  0  0  0  0  0  0  0  0  0
   31.6278   28.3598   41.1376 C   0  0  0  0  0  0  0  0  0  0  0  0
   31.7772   29.8061   40.2945 S   0  0  0  0  0  0  0  0  0  0  0  0
   31.3801   29.5700   38.6616 C   0  0  0  0  0  0  0  0  0  0  0  0
   31.4159   30.5463   37.8659 O   0  0  0  0  0  0  0  0  0  0  0  0
  1  2  1  0
  2  3  2  0
  2  4  1  0
  4  5  2  0
  5  6  1  0
  6  7  2  0
  7  8  1  0
  8  9  2  0
  9 10  1  0
 10 11  2  0
 11 12  1  0
 12 13  2  0
 13 14  1  0
  8 15  1  0
 15 16  2  0
 16 17  1  0
 17 18  1  0
 18 19  1  0
 19 20  1  0
 19 21  1  0
 19 22  1  0
 22 23  1  0
 23 24  1  0
 24 25  1  0
 25 26  2  0
 13  4  1  0
 25 15  1  0
 12  7  1  0
 23 17  2  0
M  END
>  <AAScore>  (1) 
12.384552903289675

>  <RootName>  (1) 
./4ZLY/04_DeltaGEst/trajectory_01/rank_01/lead_0292

$$$$
