confid_15
     RDKit          3D

 29 32  0  0  0  0  0  0  0  0999 V2000
   25.3300   26.2600   34.7600 N   0  0  0  0  0  0  0  0  0  0  0  0
   26.1200   25.9200   33.6900 C   0  0  0  0  0  0  0  0  0  0  0  0
   25.6300   25.1100   32.9400 O   0  0  0  0  0  0  0  0  0  0  0  0
   27.5200   26.3800   33.4600 C   0  0  0  0  0  0  0  0  0  0  0  0
   28.1600   26.6300   34.6100 N   0  0  0  0  0  0  0  0  0  0  0  0
   29.4800   26.8500   34.5700 N   0  0  0  0  0  0  0  0  0  0  0  0
   30.1900   26.7800   33.4400 C   0  0  0  0  0  0  0  0  0  0  0  0
   31.5600   27.0500   33.5000 C   0  0  0  0  0  0  0  0  0  0  0  0
   32.2700   27.2400   32.3100 C   0  0  0  0  0  0  0  0  0  0  0  0
   31.6100   27.2500   31.0800 C   0  0  0  0  0  0  0  0  0  0  0  0
   30.2700   26.8700   31.0600 C   0  0  0  0  0  0  0  0  0  0  0  0
   29.5100   26.6900   32.2300 C   0  0  0  0  0  0  0  0  0  0  0  0
   28.1400   26.4100   32.2000 C   0  0  0  0  0  0  0  0  0  0  0  0
   27.4300   26.1300   31.0500 N   0  0  0  0  0  0  0  0  0  0  0  0
   24.2141   25.4988   35.2570 C   0  0  0  0  0  0  0  0  0  0  0  0
   23.1605   26.1588   35.8078 N   0  0  0  0  0  0  0  0  0  0  0  0
   22.0829   25.5073   36.3161 C   0  0  0  0  0  0  0  0  0  0  0  0
   22.0328   24.1071   36.3037 C   0  0  0  0  0  0  0  0  0  0  0  0
   20.8167   23.3821   36.8249 C   0  0  0  0  0  0  0  0  0  0  0  0
   19.9804   22.7554   35.6947 C   0  0  0  0  0  0  0  0  0  0  0  0
   20.7940   22.2305   34.5786 N   0  0  0  0  0  0  0  0  0  0  0  0
   21.9362   21.3940   34.8400 C   0  0  0  0  0  0  0  0  0  0  0  0
   21.9894   20.2404   34.3358 O   0  0  0  0  0  0  0  0  0  0  0  0
   23.0834   21.8786   35.6847 C   0  0  0  0  0  0  0  0  0  0  0  0
   23.1167   23.3893   35.7552 C   0  0  0  0  0  0  0  0  0  0  0  0
   24.2147   24.0942   35.2403 C   0  0  0  0  0  0  0  0  0  0  0  0
   20.4721   22.5531   33.1757 C   0  0  0  0  0  0  0  0  0  0  0  0
   19.0422   22.1279   32.8224 C   0  0  0  0  0  0  0  0  0  0  0  0
   20.7049   24.0413   32.8915 C   0  0  0  0  0  0  0  0  0  0  0  0
  1  2  1  0
  2  3  2  0
  2  4  1  0
  4  5  2  0
  5  6  1  0
  6  7  2  0
  7  8  1  0
  8  9  2  0
  9 10  1  0
 10 11  2  0
 11 12  1  0
 12 13  2  0
 13 14  1  0
  1 15  1  0
 15 16  2  0
 16 17  1  0
 17 18  2  0
 18 19  1  0
 19 20  1  0
 20 21  1  0
 21 22  1  0
 22 23  2  0
 22 24  1  0
 24 25  1  0
 25 26  2  0
 21 27  1  0
 27 28  1  0
 27 29  1  0
 13  4  1  0
 26 15  1  0
 12  7  1  0
 25 18  1  0
M  END
>  <AAScore>  (1) 
11866.013805605078

>  <RootName>  (1) 
./4ZLY/04_DeltaGEst/trajectory_03/rank_00/lead_0236

$$$$
