confid_4
     RDKit          3D

 31 35  0  0  0  0  0  0  0  0999 V2000
   24.4800   26.1000   36.1300 N   0  0  0  0  0  0  0  0  0  0  0  0
   25.2500   26.2500   34.9900 C   0  0  0  0  0  0  0  0  0  0  0  0
   24.7400   25.7600   33.9900 O   0  0  0  0  0  0  0  0  0  0  0  0
   26.5900   26.8900   34.9600 C   0  0  0  0  0  0  0  0  0  0  0  0
   27.0600   27.2400   36.1600 N   0  0  0  0  0  0  0  0  0  0  0  0
   28.3000   27.7100   36.2400 N   0  0  0  0  0  0  0  0  0  0  0  0
   29.0500   27.9600   35.1500 C   0  0  0  0  0  0  0  0  0  0  0  0
   30.3400   28.4900   35.2600 C   0  0  0  0  0  0  0  0  0  0  0  0
   31.1100   28.8200   34.1400 C   0  0  0  0  0  0  0  0  0  0  0  0
   30.5200   28.6700   32.8800 C   0  0  0  0  0  0  0  0  0  0  0  0
   29.2900   28.0200   32.7700 C   0  0  0  0  0  0  0  0  0  0  0  0
   28.5200   27.7100   33.8900 C   0  0  0  0  0  0  0  0  0  0  0  0
   27.2700   27.0800   33.7600 C   0  0  0  0  0  0  0  0  0  0  0  0
   26.7500   26.8800   32.4900 N   0  0  0  0  0  0  0  0  0  0  0  0
   23.1080   25.6564   36.1541 C   0  0  0  0  0  0  0  0  0  0  0  0
   22.1689   26.1358   35.2219 C   0  0  0  0  0  0  0  0  0  0  0  0
   20.8402   25.6918   35.2604 C   0  0  0  0  0  0  0  0  0  0  0  0
   19.8947   26.1621   34.3002 N   0  0  0  0  0  0  0  0  0  0  0  0
   18.4922   25.8878   33.9443 C   0  0  0  0  0  0  0  0  0  0  0  0
   18.4318   26.8240   32.7694 C   0  0  0  0  0  0  0  0  0  0  0  0
   19.8687   27.0685   33.1368 C   0  0  0  0  0  0  0  0  0  0  0  0
   18.2701   26.1343   31.4719 N   0  0  0  0  0  0  0  0  0  0  0  0
   16.8908   25.6276   31.3272 C   0  0  0  0  0  0  0  0  0  0  0  0
   16.7279   24.9096   29.9689 C   0  0  0  0  0  0  0  0  0  0  0  0
   17.8542   25.0856   29.1296 O   0  0  0  0  0  0  0  0  0  0  0  0
   18.1417   26.4620   29.0036 C   0  0  0  0  0  0  0  0  0  0  0  0
   18.5558   27.0702   30.3608 C   0  0  0  0  0  0  0  0  0  0  0  0
   20.4403   24.7841   36.2483 C   0  0  0  0  0  0  0  0  0  0  0  0
   21.3600   24.3241   37.1918 C   0  0  0  0  0  0  0  0  0  0  0  0
   22.6870   24.7616   37.1524 C   0  0  0  0  0  0  0  0  0  0  0  0
   23.5706   24.2906   38.0697 F   0  0  0  0  0  0  0  0  0  0  0  0
  1  2  1  0
  2  3  2  0
  2  4  1  0
  4  5  2  0
  5  6  1  0
  6  7  2  0
  7  8  1  0
  8  9  2  0
  9 10  1  0
 10 11  2  0
 11 12  1  0
 12 13  2  0
 13 14  1  0
  1 15  1  0
 15 16  2  0
 16 17  1  0
 17 18  1  0
 18 19  1  0
 19 20  1  0
 20 21  1  0
 20 22  1  0
 22 23  1  0
 23 24  1  0
 24 25  1  0
 25 26  1  0
 26 27  1  0
 17 28  2  0
 28 29  1  0
 29 30  2  0
 30 31  1  0
 13  4  1  0
 30 15  1  0
 12  7  1  0
 21 18  1  0
 27 22  1  0
M  END
>  <AAScore>  (1) 
1051.2044453176334

>  <RootName>  (1) 
./4ZLY/04_DeltaGEst/trajectory_00/rank_00/lead_0252

$$$$
