confid_4
     RDKit          3D

 27 29  0  0  0  0  0  0  0  0999 V2000
   24.5700   26.8800   35.5900 N   0  0  0  0  0  0  0  0  0  0  0  0
   25.5000   26.4000   34.6900 C   0  0  0  0  0  0  0  0  0  0  0  0
   25.1700   25.5200   33.9100 O   0  0  0  0  0  0  0  0  0  0  0  0
   26.8400   27.0200   34.7400 C   0  0  0  0  0  0  0  0  0  0  0  0
   27.3800   27.2800   35.9400 N   0  0  0  0  0  0  0  0  0  0  0  0
   28.6200   27.7400   36.0300 N   0  0  0  0  0  0  0  0  0  0  0  0
   29.3800   28.0000   34.9600 C   0  0  0  0  0  0  0  0  0  0  0  0
   30.6700   28.5000   35.1300 C   0  0  0  0  0  0  0  0  0  0  0  0
   31.5400   28.6100   34.0300 C   0  0  0  0  0  0  0  0  0  0  0  0
   31.0900   28.2200   32.7700 C   0  0  0  0  0  0  0  0  0  0  0  0
   29.8000   27.7000   32.6000 C   0  0  0  0  0  0  0  0  0  0  0  0
   28.9600   27.5500   33.7100 C   0  0  0  0  0  0  0  0  0  0  0  0
   27.6600   27.0300   33.5900 C   0  0  0  0  0  0  0  0  0  0  0  0
   27.1600   26.7400   32.3400 N   0  0  0  0  0  0  0  0  0  0  0  0
   33.1763   29.2234   34.2374 S   0  0  0  0  0  6  0  0  0  0  0  0
   34.1041   28.4956   33.3009 O   0  0  0  0  0  0  0  0  0  0  0  0
   33.6319   28.9756   35.6508 O   0  0  0  0  0  0  0  0  0  0  0  0
   33.2034   30.9770   33.8532 C   0  0  0  0  0  0  0  0  0  0  0  0
   32.5413   31.8508   34.9072 C   0  0  0  0  0  0  0  0  0  0  0  0
   33.7993   32.5466   35.2394 N   0  0  0  0  0  0  0  0  0  0  0  0
   34.2360   32.3087   36.6391 C   0  0  2  0  0  0  0  0  0  0  0  0
   33.2851   33.0478   37.6268 C   0  0  0  0  0  0  0  0  0  0  0  0
   33.2728   32.4276   39.0479 C   0  0  0  0  0  0  0  0  0  0  0  0
   32.7466   33.4463   40.0672 C   0  0  0  0  0  0  0  0  0  0  0  0
   32.4169   31.1541   39.0991 C   0  0  0  0  0  0  0  0  0  0  0  0
   35.6750   32.8337   36.8280 C   0  0  0  0  0  0  0  0  0  0  0  0
   34.4872   31.6790   34.2609 C   0  0  0  0  0  0  0  0  0  0  0  0
  1  2  1  0
  2  3  2  0
  2  4  1  0
  4  5  2  0
  5  6  1  0
  6  7  2  0
  7  8  1  0
  8  9  2  0
  9 10  1  0
 10 11  2  0
 11 12  1  0
 12 13  2  0
 13 14  1  0
  9 15  1  0
 15 16  2  0
 15 17  2  0
 15 18  1  0
 18 19  1  0
 19 20  1  0
 20 21  1  0
 21 22  1  0
 22 23  1  0
 23 24  1  0
 23 25  1  0
 21 26  1  6
 20 27  1  0
 13  4  1  0
 27 18  1  0
 12  7  1  0
M  END
>  <AAScore>  (1) 
-6.321394421684024

>  <RootName>  (1) 
./4ZLY/04_DeltaGEst/trajectory_05/rank_01/lead_0430

$$$$
