confid_5
     RDKit          3D

 28 31  0  0  0  0  0  0  0  0999 V2000
   24.6900   26.1200   35.5300 N   0  0  0  0  0  0  0  0  0  0  0  0
   25.6600   25.6700   34.6600 C   0  0  0  0  0  0  0  0  0  0  0  0
   25.2400   25.0100   33.7200 O   0  0  0  0  0  0  0  0  0  0  0  0
   27.0300   26.2200   34.8800 C   0  0  0  0  0  0  0  0  0  0  0  0
   27.3500   26.7300   36.0700 N   0  0  0  0  0  0  0  0  0  0  0  0
   28.5700   27.1800   36.3300 N   0  0  0  0  0  0  0  0  0  0  0  0
   29.5300   27.1100   35.3900 C   0  0  0  0  0  0  0  0  0  0  0  0
   30.8300   27.5700   35.6500 C   0  0  0  0  0  0  0  0  0  0  0  0
   31.8500   27.5400   34.6900 C   0  0  0  0  0  0  0  0  0  0  0  0
   31.5100   27.1200   33.4000 C   0  0  0  0  0  0  0  0  0  0  0  0
   30.2200   26.6300   33.1100 C   0  0  0  0  0  0  0  0  0  0  0  0
   29.2400   26.6600   34.1000 C   0  0  0  0  0  0  0  0  0  0  0  0
   27.9300   26.2600   33.8100 C   0  0  0  0  0  0  0  0  0  0  0  0
   27.5200   25.7100   32.6100 N   0  0  0  0  0  0  0  0  0  0  0  0
   23.3249   26.3957   35.1635 C   0  0  0  0  0  0  0  0  0  0  0  0
   22.3503   26.2449   36.0957 N   0  0  0  0  0  0  0  0  0  0  0  0
   21.0458   26.4960   35.8241 C   0  0  0  0  0  0  0  0  0  0  0  0
   20.6513   26.9463   34.5542 C   0  0  0  0  0  0  0  0  0  0  0  0
   19.1787   27.1669   34.3016 C   0  0  0  0  0  0  0  0  0  0  0  0
   18.5273   25.9729   33.5713 C   0  0  0  0  0  0  0  0  0  0  0  0
   19.5096   25.2299   32.7443 N   0  0  0  0  0  0  0  0  0  0  0  0
   19.1337   23.8095   32.6489 C   0  0  0  0  0  0  0  0  0  0  0  0
   19.6608   25.7934   31.3860 C   0  0  0  0  0  0  0  0  0  0  0  0
   20.0914   27.2702   31.3708 C   0  0  0  0  0  0  0  0  0  0  0  0
   21.3576   27.5696   32.1473 C   0  0  0  0  0  0  0  0  0  0  0  0
   22.2396   28.2530   31.5571 O   0  0  0  0  0  0  0  0  0  0  0  0
   21.6420   27.1150   33.5467 C   0  0  0  0  0  0  0  0  0  0  0  0
   22.9845   26.8546   33.8818 C   0  0  0  0  0  0  0  0  0  0  0  0
  1  2  1  0
  2  3  2  0
  2  4  1  0
  4  5  2  0
  5  6  1  0
  6  7  2  0
  7  8  1  0
  8  9  2  0
  9 10  1  0
 10 11  2  0
 11 12  1  0
 12 13  2  0
 13 14  1  0
  1 15  1  0
 15 16  2  0
 16 17  1  0
 17 18  2  0
 18 19  1  0
 19 20  1  0
 20 21  1  0
 21 22  1  0
 21 23  1  0
 23 24  1  0
 24 25  1  0
 25 26  2  0
 25 27  1  0
 27 28  2  0
 13  4  1  0
 28 15  1  0
 12  7  1  0
 27 18  1  0
M  END
>  <AAScore>  (1) 
2747.304002246191

>  <RootName>  (1) 
./4ZLY/04_DeltaGEst/trajectory_02/rank_00/lead_0139

$$$$
