confid_5
     RDKit          3D

 27 30  0  0  0  0  0  0  0  0999 V2000
   24.4800   26.1000   36.1300 N   0  0  0  0  0  0  0  0  0  0  0  0
   25.2500   26.2500   34.9900 C   0  0  0  0  0  0  0  0  0  0  0  0
   24.7400   25.7600   33.9900 O   0  0  0  0  0  0  0  0  0  0  0  0
   26.5900   26.8900   34.9600 C   0  0  0  0  0  0  0  0  0  0  0  0
   27.0600   27.2400   36.1600 N   0  0  0  0  0  0  0  0  0  0  0  0
   28.3000   27.7100   36.2400 N   0  0  0  0  0  0  0  0  0  0  0  0
   29.0500   27.9600   35.1500 C   0  0  0  0  0  0  0  0  0  0  0  0
   30.3400   28.4900   35.2600 C   0  0  0  0  0  0  0  0  0  0  0  0
   31.1100   28.8200   34.1400 C   0  0  0  0  0  0  0  0  0  0  0  0
   30.5200   28.6700   32.8800 C   0  0  0  0  0  0  0  0  0  0  0  0
   29.2900   28.0200   32.7700 C   0  0  0  0  0  0  0  0  0  0  0  0
   28.5200   27.7100   33.8900 C   0  0  0  0  0  0  0  0  0  0  0  0
   27.2700   27.0800   33.7600 C   0  0  0  0  0  0  0  0  0  0  0  0
   26.7500   26.8800   32.4900 N   0  0  0  0  0  0  0  0  0  0  0  0
   23.0419   26.0513   36.1583 C   0  0  0  0  0  0  0  0  0  0  0  0
   22.2603   26.7050   35.1764 C   0  0  0  0  0  0  0  0  0  0  0  0
   20.8736   26.6368   35.2910 C   0  0  0  0  0  0  0  0  0  0  0  0
   19.8335   27.2534   34.3986 C   0  0  0  0  0  0  0  0  0  0  0  0
   18.5698   26.8530   35.0293 N   0  0  0  0  0  0  0  0  0  0  0  0
   18.8648   26.0911   36.1972 C   0  0  0  0  0  0  0  0  0  0  0  0
   17.9993   25.6168   36.9797 O   0  0  0  0  0  0  0  0  0  0  0  0
   20.2918   25.9657   36.3388 C   0  0  0  0  0  0  0  0  0  0  0  0
   21.0644   25.3444   37.3121 C   0  0  0  0  0  0  0  0  0  0  0  0
   22.4220   25.4082   37.1979 N   0  0  0  0  0  0  0  0  0  0  0  0
   17.2394   27.2791   34.5969 C   0  0  0  0  0  0  0  0  0  0  0  0
   16.9537   28.7274   35.0118 C   0  0  0  0  0  0  0  0  0  0  0  0
   16.9204   28.9015   36.5288 C   0  0  0  0  0  0  0  0  0  0  0  0
  1  2  1  0
  2  3  2  0
  2  4  1  0
  4  5  2  0
  5  6  1  0
  6  7  2  0
  7  8  1  0
  8  9  2  0
  9 10  1  0
 10 11  2  0
 11 12  1  0
 12 13  2  0
 13 14  1  0
  1 15  1  0
 15 16  2  0
 16 17  1  0
 17 18  1  0
 18 19  1  0
 19 20  1  0
 20 21  2  0
 20 22  1  0
 22 23  1  0
 23 24  2  0
 19 25  1  0
 25 26  1  0
 26 27  1  0
 13  4  1  0
 24 15  1  0
 12  7  1  0
 22 17  2  0
M  END
>  <AAScore>  (1) 
1397.0242049431286

>  <RootName>  (1) 
./4ZLY/04_DeltaGEst/trajectory_00/rank_00/lead_0023

$$$$
