confid_3
     RDKit          3D

 27 30  0  0  0  0  0  0  0  0999 V2000
   25.3300   26.2600   34.7600 N   0  0  0  0  0  0  0  0  0  0  0  0
   26.1200   25.9200   33.6900 C   0  0  0  0  0  0  0  0  0  0  0  0
   25.6300   25.1100   32.9400 O   0  0  0  0  0  0  0  0  0  0  0  0
   27.5200   26.3800   33.4600 C   0  0  0  0  0  0  0  0  0  0  0  0
   28.1600   26.6300   34.6100 N   0  0  0  0  0  0  0  0  0  0  0  0
   29.4800   26.8500   34.5700 N   0  0  0  0  0  0  0  0  0  0  0  0
   30.1900   26.7800   33.4400 C   0  0  0  0  0  0  0  0  0  0  0  0
   31.5600   27.0500   33.5000 C   0  0  0  0  0  0  0  0  0  0  0  0
   32.2700   27.2400   32.3100 C   0  0  0  0  0  0  0  0  0  0  0  0
   31.6100   27.2500   31.0800 C   0  0  0  0  0  0  0  0  0  0  0  0
   30.2700   26.8700   31.0600 C   0  0  0  0  0  0  0  0  0  0  0  0
   29.5100   26.6900   32.2300 C   0  0  0  0  0  0  0  0  0  0  0  0
   28.1400   26.4100   32.2000 C   0  0  0  0  0  0  0  0  0  0  0  0
   27.4300   26.1300   31.0500 N   0  0  0  0  0  0  0  0  0  0  0  0
   27.4797   24.8060   30.4381 C   0  0  0  0  0  0  0  0  0  0  0  0
   27.8713   24.9223   28.9622 C   0  0  0  0  0  0  0  0  0  0  0  0
   27.2833   26.1323   28.2418 C   0  0  0  0  0  0  0  0  0  0  0  0
   27.4143   26.2792   26.8715 N   0  0  0  0  0  0  0  0  0  0  0  0
   26.7798   27.3236   26.2381 C   0  0  0  0  0  0  0  0  0  0  0  0
   26.8265   27.4431   24.9836 O   0  0  0  0  0  0  0  0  0  0  0  0
   26.0920   28.2478   26.9499 N   0  0  0  0  0  0  0  0  0  0  0  0
   26.0081   28.1840   28.2953 C   0  0  0  0  0  0  0  0  0  0  0  0
   26.6154   27.1382   28.9844 C   0  0  0  0  0  0  0  0  0  0  0  0
   26.5041   27.1075   30.4873 C   0  0  0  0  0  0  0  0  0  0  0  0
   28.2562   25.3712   26.0537 C   0  0  0  0  0  0  0  0  0  0  0  0
   29.5749   26.0435   25.6315 C   0  0  0  0  0  0  0  0  0  0  0  0
   30.4846   26.3484   26.8196 C   0  0  0  0  0  0  0  0  0  0  0  0
  1  2  1  0
  2  3  2  0
  2  4  1  0
  4  5  2  0
  5  6  1  0
  6  7  2  0
  7  8  1  0
  8  9  2  0
  9 10  1  0
 10 11  2  0
 11 12  1  0
 12 13  2  0
 13 14  1  0
 14 15  1  0
 15 16  1  0
 16 17  1  0
 17 18  1  0
 18 19  1  0
 19 20  2  0
 19 21  1  0
 21 22  2  0
 22 23  1  0
 23 24  1  0
 18 25  1  0
 25 26  1  0
 26 27  1  0
 13  4  1  0
 24 14  1  0
 12  7  1  0
 23 17  2  0
M  END
>  <AAScore>  (1) 
35.51828130354608

>  <RootName>  (1) 
./4ZLY/04_DeltaGEst/trajectory_03/rank_01/lead_0211

$$$$
