confid_1
     RDKit          3D

 28 32  0  0  0  0  0  0  0  0999 V2000
   24.2000   26.2400   35.6900 N   0  0  0  0  0  0  0  0  0  0  0  0
   24.8500   26.2800   34.4800 C   0  0  0  0  0  0  0  0  0  0  0  0
   24.3100   25.7400   33.5400 O   0  0  0  0  0  0  0  0  0  0  0  0
   26.1800   26.9700   34.4700 C   0  0  0  0  0  0  0  0  0  0  0  0
   26.6500   27.6000   35.5500 N   0  0  0  0  0  0  0  0  0  0  0  0
   27.7900   28.2700   35.6200 N   0  0  0  0  0  0  0  0  0  0  0  0
   28.5400   28.3000   34.5100 C   0  0  0  0  0  0  0  0  0  0  0  0
   29.7700   28.9400   34.5600 C   0  0  0  0  0  0  0  0  0  0  0  0
   30.7000   28.8900   33.5000 C   0  0  0  0  0  0  0  0  0  0  0  0
   30.3700   28.1400   32.3700 C   0  0  0  0  0  0  0  0  0  0  0  0
   29.1200   27.5200   32.2800 C   0  0  0  0  0  0  0  0  0  0  0  0
   28.2100   27.6100   33.3300 C   0  0  0  0  0  0  0  0  0  0  0  0
   26.9700   26.9700   33.3100 C   0  0  0  0  0  0  0  0  0  0  0  0
   26.5300   26.2400   32.2200 N   0  0  0  0  0  0  0  0  0  0  0  0
   23.2247   25.2440   36.0534 C   0  0  0  0  0  0  0  0  0  0  0  0
   23.0251   24.1319   35.2851 N   0  0  0  0  0  0  0  0  0  0  0  0
   22.1136   23.1660   35.6134 C   0  0  0  0  0  0  0  0  0  0  0  0
   21.9921   21.9552   34.7347 C   0  0  0  0  0  0  0  0  0  0  0  0
   20.7241   21.1418   35.0394 C   0  0  0  0  0  0  0  0  0  0  0  0
   20.4979   20.9669   36.4883 N   0  0  0  0  0  0  0  0  0  0  0  0
   21.5480   20.1584   37.1322 C   0  0  0  0  0  0  0  0  0  0  0  0
   20.3053   22.2636   37.1685 C   0  0  0  0  0  0  0  0  0  0  0  0
   21.3653   23.2788   36.8077 C   0  0  0  0  0  0  0  0  0  0  0  0
   21.5705   24.4221   37.5889 C   0  0  0  0  0  0  0  0  0  0  0  0
   20.9108   24.8258   38.8624 C   0  0  0  0  0  0  0  0  0  0  0  0
   21.5884   26.1791   39.1861 C   0  0  0  0  0  0  0  0  0  0  0  0
   22.5187   26.4100   38.1298 O   0  0  0  0  0  0  0  0  0  0  0  0
   22.4762   25.3728   37.2235 C   0  0  0  0  0  0  0  0  0  0  0  0
  1  2  1  0
  2  3  2  0
  2  4  1  0
  4  5  2  0
  5  6  1  0
  6  7  2  0
  7  8  1  0
  8  9  2  0
  9 10  1  0
 10 11  2  0
 11 12  1  0
 12 13  2  0
 13 14  1  0
  1 15  1  0
 15 16  2  0
 16 17  1  0
 17 18  1  0
 18 19  1  0
 19 20  1  0
 20 21  1  0
 20 22  1  0
 22 23  1  0
 23 24  1  0
 24 25  1  0
 25 26  1  0
 26 27  1  0
 27 28  1  0
 13  4  1  0
 28 15  1  0
 12  7  1  0
 23 17  2  0
 28 24  2  0
M  END
>  <AAScore>  (1) 
955.0198063151372

>  <RootName>  (1) 
./4ZLY/04_DeltaGEst/trajectory_04/rank_00/lead_0316

$$$$
