confid_15
     RDKit          3D

 27 30  0  0  0  0  0  0  0  0999 V2000
   24.5700   26.8800   35.5900 N   0  0  0  0  0  0  0  0  0  0  0  0
   25.5000   26.4000   34.6900 C   0  0  0  0  0  0  0  0  0  0  0  0
   25.1700   25.5200   33.9100 O   0  0  0  0  0  0  0  0  0  0  0  0
   26.8400   27.0200   34.7400 C   0  0  0  0  0  0  0  0  0  0  0  0
   27.3800   27.2800   35.9400 N   0  0  0  0  0  0  0  0  0  0  0  0
   28.6200   27.7400   36.0300 N   0  0  0  0  0  0  0  0  0  0  0  0
   29.3800   28.0000   34.9600 C   0  0  0  0  0  0  0  0  0  0  0  0
   30.6700   28.5000   35.1300 C   0  0  0  0  0  0  0  0  0  0  0  0
   31.5400   28.6100   34.0300 C   0  0  0  0  0  0  0  0  0  0  0  0
   31.0900   28.2200   32.7700 C   0  0  0  0  0  0  0  0  0  0  0  0
   29.8000   27.7000   32.6000 C   0  0  0  0  0  0  0  0  0  0  0  0
   28.9600   27.5500   33.7100 C   0  0  0  0  0  0  0  0  0  0  0  0
   27.6600   27.0300   33.5900 C   0  0  0  0  0  0  0  0  0  0  0  0
   27.1600   26.7400   32.3400 N   0  0  0  0  0  0  0  0  0  0  0  0
   23.1509   26.6572   35.5019 C   0  0  0  0  0  0  0  0  0  0  0  0
   22.4244   26.5977   36.6489 N   0  0  0  0  0  0  0  0  0  0  0  0
   21.0790   26.4251   36.6412 C   0  0  0  0  0  0  0  0  0  0  0  0
   20.3843   26.3104   35.4339 C   0  0  0  0  0  0  0  0  0  0  0  0
   19.0053   26.1115   35.4859 O   0  0  0  0  0  0  0  0  0  0  0  0
   18.0699   27.1682   35.3101 C   0  0  0  0  0  0  0  0  0  0  0  0
   18.1931   27.8202   33.9301 C   0  0  0  0  0  0  0  0  0  0  0  0
   17.9812   26.8482   32.8345 N   0  0  0  0  0  0  0  0  0  0  0  0
   19.0124   25.7811   32.7235 C   0  0  0  0  0  0  0  0  0  0  0  0
   20.4762   26.2733   32.8218 C   0  0  0  0  0  0  0  0  0  0  0  0
   21.0991   26.3699   34.2108 C   0  0  0  0  0  0  0  0  0  0  0  0
   22.4897   26.5733   34.2647 C   0  0  0  0  0  0  0  0  0  0  0  0
   17.8011   27.5560   31.5530 C   0  0  0  0  0  0  0  0  0  0  0  0
  1  2  1  0
  2  3  2  0
  2  4  1  0
  4  5  2  0
  5  6  1  0
  6  7  2  0
  7  8  1  0
  8  9  2  0
  9 10  1  0
 10 11  2  0
 11 12  1  0
 12 13  2  0
 13 14  1  0
  1 15  1  0
 15 16  2  0
 16 17  1  0
 17 18  2  0
 18 19  1  0
 19 20  1  0
 20 21  1  0
 21 22  1  0
 22 23  1  0
 23 24  1  0
 24 25  1  0
 25 26  2  0
 22 27  1  0
 13  4  1  0
 26 15  1  0
 12  7  1  0
 25 18  1  0
M  END
>  <AAScore>  (1) 
375.5090156845817

>  <RootName>  (1) 
./4ZLY/04_DeltaGEst/trajectory_05/rank_00/lead_0441

$$$$
