confid_12
     RDKit          3D

 27 29  0  0  0  0  0  0  0  0999 V2000
   24.4800   26.1000   36.1300 N   0  0  0  0  0  0  0  0  0  0  0  0
   25.2500   26.2500   34.9900 C   0  0  0  0  0  0  0  0  0  0  0  0
   24.7400   25.7600   33.9900 O   0  0  0  0  0  0  0  0  0  0  0  0
   26.5900   26.8900   34.9600 C   0  0  0  0  0  0  0  0  0  0  0  0
   27.0600   27.2400   36.1600 N   0  0  0  0  0  0  0  0  0  0  0  0
   28.3000   27.7100   36.2400 N   0  0  0  0  0  0  0  0  0  0  0  0
   29.0500   27.9600   35.1500 C   0  0  0  0  0  0  0  0  0  0  0  0
   30.3400   28.4900   35.2600 C   0  0  0  0  0  0  0  0  0  0  0  0
   31.1100   28.8200   34.1400 C   0  0  0  0  0  0  0  0  0  0  0  0
   30.5200   28.6700   32.8800 C   0  0  0  0  0  0  0  0  0  0  0  0
   29.2900   28.0200   32.7700 C   0  0  0  0  0  0  0  0  0  0  0  0
   28.5200   27.7100   33.8900 C   0  0  0  0  0  0  0  0  0  0  0  0
   27.2700   27.0800   33.7600 C   0  0  0  0  0  0  0  0  0  0  0  0
   26.7500   26.8800   32.4900 N   0  0  0  0  0  0  0  0  0  0  0  0
   23.5056   25.0597   36.3430 C   0  0  0  0  0  0  0  0  0  0  0  0
   23.6880   23.7655   35.8209 C   0  0  0  0  0  0  0  0  0  0  0  0
   22.7402   22.7597   36.0645 C   0  0  0  0  0  0  0  0  0  0  0  0
   22.9783   21.1322   35.4251 S   0  0  0  0  0  6  0  0  0  0  0  0
   21.8244   20.8001   34.5210 O   0  0  0  0  0  0  0  0  0  0  0  0
   24.2515   21.0715   34.6256 O   0  0  0  0  0  0  0  0  0  0  0  0
   23.0495   19.9845   36.7392 N   0  0  0  0  0  0  0  0  0  0  0  0
   24.1579   20.3349   37.6364 C   0  0  0  0  0  0  0  0  0  0  0  0
   23.2507   18.6354   36.1966 C   0  0  0  0  0  0  0  0  0  0  0  0
   21.6108   23.0465   36.8459 C   0  0  0  0  0  0  0  0  0  0  0  0
   21.4395   24.3230   37.3867 C   0  0  0  0  0  0  0  0  0  0  0  0
   22.3845   25.3221   37.1434 C   0  0  0  0  0  0  0  0  0  0  0  0
   20.6845   22.0873   37.0991 F   0  0  0  0  0  0  0  0  0  0  0  0
  1  2  1  0
  2  3  2  0
  2  4  1  0
  4  5  2  0
  5  6  1  0
  6  7  2  0
  7  8  1  0
  8  9  2  0
  9 10  1  0
 10 11  2  0
 11 12  1  0
 12 13  2  0
 13 14  1  0
  1 15  1  0
 15 16  2  0
 16 17  1  0
 17 18  1  0
 18 19  2  0
 18 20  2  0
 18 21  1  0
 21 22  1  0
 21 23  1  0
 17 24  2  0
 24 25  1  0
 25 26  2  0
 24 27  1  0
 13  4  1  0
 26 15  1  0
 12  7  1  0
M  END
>  <AAScore>  (1) 
977.2790545557194

>  <RootName>  (1) 
./4ZLY/04_DeltaGEst/trajectory_00/rank_00/lead_0474

$$$$
