confid_14
     RDKit          3D

 30 33  0  0  0  0  0  0  0  0999 V2000
   24.2000   26.2400   35.6900 N   0  0  0  0  0  0  0  0  0  0  0  0
   24.8500   26.2800   34.4800 C   0  0  0  0  0  0  0  0  0  0  0  0
   24.3100   25.7400   33.5400 O   0  0  0  0  0  0  0  0  0  0  0  0
   26.1800   26.9700   34.4700 C   0  0  0  0  0  0  0  0  0  0  0  0
   26.6500   27.6000   35.5500 N   0  0  0  0  0  0  0  0  0  0  0  0
   27.7900   28.2700   35.6200 N   0  0  0  0  0  0  0  0  0  0  0  0
   28.5400   28.3000   34.5100 C   0  0  0  0  0  0  0  0  0  0  0  0
   29.7700   28.9400   34.5600 C   0  0  0  0  0  0  0  0  0  0  0  0
   30.7000   28.8900   33.5000 C   0  0  0  0  0  0  0  0  0  0  0  0
   30.3700   28.1400   32.3700 C   0  0  0  0  0  0  0  0  0  0  0  0
   29.1200   27.5200   32.2800 C   0  0  0  0  0  0  0  0  0  0  0  0
   28.2100   27.6100   33.3300 C   0  0  0  0  0  0  0  0  0  0  0  0
   26.9700   26.9700   33.3100 C   0  0  0  0  0  0  0  0  0  0  0  0
   26.5300   26.2400   32.2200 N   0  0  0  0  0  0  0  0  0  0  0  0
   22.8130   25.7909   35.8417 C   0  0  0  0  0  0  0  0  0  0  0  0
   21.8446   26.8243   35.2469 C   0  0  0  0  0  0  0  0  0  0  0  0
   20.4431   26.5898   35.6709 N   0  0  0  0  0  0  0  0  0  0  0  0
   19.5634   27.7371   35.3178 C   0  0  0  0  0  0  0  0  0  0  0  0
   18.6969   27.5103   34.0589 C   0  0  0  0  0  0  0  0  0  0  0  0
   19.3271   26.5461   33.1549 N   0  0  0  0  0  0  0  0  0  0  0  0
   19.7679   25.2488   33.6759 C   0  0  0  0  0  0  0  0  0  0  0  0
   19.8843   25.2987   35.2063 C   0  0  0  0  0  0  0  0  0  0  0  0
   19.6098   26.9090   31.7940 C   0  0  0  0  0  0  0  0  0  0  0  0
   20.5806   27.8898   31.5397 C   0  0  0  0  0  0  0  0  0  0  0  0
   20.9042   28.2422   30.2292 C   0  0  0  0  0  0  0  0  0  0  0  0
   20.2629   27.6183   29.1593 C   0  0  0  0  0  0  0  0  0  0  0  0
   19.2828   26.6506   29.3946 C   0  0  0  0  0  0  0  0  0  0  0  0
   18.6753   26.0592   28.3346 F   0  0  0  0  0  0  0  0  0  0  0  0
   18.9284   26.3018   30.7125 C   0  0  0  0  0  0  0  0  0  0  0  0
   17.8558   25.2716   30.9451 C   0  0  0  0  0  0  0  0  0  0  0  0
  1  2  1  0
  2  3  2  0
  2  4  1  0
  4  5  2  0
  5  6  1  0
  6  7  2  0
  7  8  1  0
  8  9  2  0
  9 10  1  0
 10 11  2  0
 11 12  1  0
 12 13  2  0
 13 14  1  0
  1 15  1  0
 15 16  1  0
 16 17  1  0
 17 18  1  0
 18 19  1  0
 19 20  1  0
 20 21  1  0
 21 22  1  0
 20 23  1  0
 23 24  2  0
 24 25  1  0
 25 26  2  0
 26 27  1  0
 27 28  1  0
 27 29  2  0
 29 30  1  0
 13  4  1  0
 22 17  1  0
 29 23  1  0
 12  7  1  0
M  END
>  <AAScore>  (1) 
411.62962729634745

>  <RootName>  (1) 
./4ZLY/04_DeltaGEst/trajectory_04/rank_00/lead_0179

$$$$
