confid_15
     RDKit          3D

 29 32  0  0  0  0  0  0  0  0999 V2000
   25.3300   26.2600   34.7600 N   0  0  0  0  0  0  0  0  0  0  0  0
   26.1200   25.9200   33.6900 C   0  0  0  0  0  0  0  0  0  0  0  0
   25.6300   25.1100   32.9400 O   0  0  0  0  0  0  0  0  0  0  0  0
   27.5200   26.3800   33.4600 C   0  0  0  0  0  0  0  0  0  0  0  0
   28.1600   26.6300   34.6100 N   0  0  0  0  0  0  0  0  0  0  0  0
   29.4800   26.8500   34.5700 N   0  0  0  0  0  0  0  0  0  0  0  0
   30.1900   26.7800   33.4400 C   0  0  0  0  0  0  0  0  0  0  0  0
   31.5600   27.0500   33.5000 C   0  0  0  0  0  0  0  0  0  0  0  0
   32.2700   27.2400   32.3100 C   0  0  0  0  0  0  0  0  0  0  0  0
   31.6100   27.2500   31.0800 C   0  0  0  0  0  0  0  0  0  0  0  0
   30.2700   26.8700   31.0600 C   0  0  0  0  0  0  0  0  0  0  0  0
   29.5100   26.6900   32.2300 C   0  0  0  0  0  0  0  0  0  0  0  0
   28.1400   26.4100   32.2000 C   0  0  0  0  0  0  0  0  0  0  0  0
   27.4300   26.1300   31.0500 N   0  0  0  0  0  0  0  0  0  0  0  0
   27.3651   24.7190   30.6037 C   0  0  0  0  0  0  0  0  0  0  0  0
   28.0604   24.4440   29.2482 C   0  0  0  0  0  0  0  0  0  0  0  0
   27.2559   24.7614   28.0539 N   0  0  0  0  0  0  0  0  0  0  0  0
   27.9462   24.7697   26.7873 C   0  0  0  0  0  0  0  0  0  0  0  0
   27.9655   23.5928   26.0209 C   0  0  0  0  0  0  0  0  0  0  0  0
   28.5638   23.5890   24.7631 C   0  0  0  0  0  0  0  0  0  0  0  0
   29.1275   24.7218   24.2758 N   0  0  0  0  0  0  0  0  0  0  0  0
   29.1380   25.8780   24.9878 C   0  0  0  0  0  0  0  0  0  0  0  0
   28.5589   25.9383   26.2687 C   0  0  0  0  0  0  0  0  0  0  0  0
   28.6570   27.2316   27.0468 C   0  0  0  0  0  0  0  0  0  0  0  0
   27.3090   27.9438   27.2155 C   0  0  0  0  0  0  0  0  0  0  0  0
   26.5628   27.3588   28.2624 O   0  0  0  0  0  0  0  0  0  0  0  0
   26.8375   27.9897   29.4967 C   0  0  0  0  0  0  0  0  0  0  0  0
   26.3795   27.0867   30.6426 C   0  0  0  0  0  0  0  0  0  0  0  0
   25.8331   24.3942   28.0061 C   0  0  0  0  0  0  0  0  0  0  0  0
  1  2  1  0
  2  3  2  0
  2  4  1  0
  4  5  2  0
  5  6  1  0
  6  7  2  0
  7  8  1  0
  8  9  2  0
  9 10  1  0
 10 11  2  0
 11 12  1  0
 12 13  2  0
 13 14  1  0
 14 15  1  0
 15 16  1  0
 16 17  1  0
 17 18  1  0
 18 19  2  0
 19 20  1  0
 20 21  2  0
 21 22  1  0
 22 23  2  0
 23 24  1  0
 24 25  1  0
 25 26  1  0
 26 27  1  0
 27 28  1  0
 17 29  1  0
 13  4  1  0
 28 14  1  0
 12  7  1  0
 23 18  1  0
M  END
>  <AAScore>  (1) 
3.885347259232312

>  <RootName>  (1) 
./4ZLY/04_DeltaGEst/trajectory_03/rank_01/lead_0193

$$$$
