confid_13
     RDKit          3D

 28 31  0  0  0  0  0  0  0  0999 V2000
   24.6900   26.1200   35.5300 N   0  0  0  0  0  0  0  0  0  0  0  0
   25.6600   25.6700   34.6600 C   0  0  0  0  0  0  0  0  0  0  0  0
   25.2400   25.0100   33.7200 O   0  0  0  0  0  0  0  0  0  0  0  0
   27.0300   26.2200   34.8800 C   0  0  0  0  0  0  0  0  0  0  0  0
   27.3500   26.7300   36.0700 N   0  0  0  0  0  0  0  0  0  0  0  0
   28.5700   27.1800   36.3300 N   0  0  0  0  0  0  0  0  0  0  0  0
   29.5300   27.1100   35.3900 C   0  0  0  0  0  0  0  0  0  0  0  0
   30.8300   27.5700   35.6500 C   0  0  0  0  0  0  0  0  0  0  0  0
   31.8500   27.5400   34.6900 C   0  0  0  0  0  0  0  0  0  0  0  0
   31.5100   27.1200   33.4000 C   0  0  0  0  0  0  0  0  0  0  0  0
   30.2200   26.6300   33.1100 C   0  0  0  0  0  0  0  0  0  0  0  0
   29.2400   26.6600   34.1000 C   0  0  0  0  0  0  0  0  0  0  0  0
   27.9300   26.2600   33.8100 C   0  0  0  0  0  0  0  0  0  0  0  0
   27.5200   25.7100   32.6100 N   0  0  0  0  0  0  0  0  0  0  0  0
   23.2718   25.9752   35.2998 C   0  0  0  0  0  0  0  0  0  0  0  0
   22.7882   26.1381   34.0394 N   0  0  0  0  0  0  0  0  0  0  0  0
   21.4677   26.0696   33.7499 C   0  0  0  0  0  0  0  0  0  0  0  0
   20.5324   25.8812   34.7689 C   0  0  0  0  0  0  0  0  0  0  0  0
   19.0662   25.7569   34.4179 C   0  0  0  0  0  0  0  0  0  0  0  0
   18.1859   26.2255   35.5071 N   0  0  0  0  0  0  0  0  0  0  0  0
   18.2262   27.6974   35.6716 C   0  0  0  0  0  0  0  0  0  0  0  0
   16.8688   28.2131   36.1413 C   0  0  0  0  0  0  0  0  0  0  0  0
   18.4744   25.4999   36.7629 C   0  0  0  0  0  0  0  0  0  0  0  0
   19.9248   25.6072   37.1540 C   0  0  0  0  0  0  0  0  0  0  0  0
   20.2124   25.6149   38.3788 O   0  0  0  0  0  0  0  0  0  0  0  0
   20.9742   25.7190   36.0979 C   0  0  0  0  0  0  0  0  0  0  0  0
   22.3752   25.7122   36.3671 C   0  0  0  0  0  0  0  0  0  0  0  0
   22.9140   25.3890   37.7456 C   0  0  0  0  0  0  0  0  0  0  0  0
  1  2  1  0
  2  3  2  0
  2  4  1  0
  4  5  2  0
  5  6  1  0
  6  7  2  0
  7  8  1  0
  8  9  2  0
  9 10  1  0
 10 11  2  0
 11 12  1  0
 12 13  2  0
 13 14  1  0
  1 15  1  0
 15 16  2  0
 16 17  1  0
 17 18  2  0
 18 19  1  0
 19 20  1  0
 20 21  1  0
 21 22  1  0
 20 23  1  0
 23 24  1  0
 24 25  2  0
 24 26  1  0
 26 27  2  0
 27 28  1  0
 13  4  1  0
 27 15  1  0
 12  7  1  0
 26 18  1  0
M  END
>  <AAScore>  (1) 
1089.65307305149

>  <RootName>  (1) 
./4ZLY/04_DeltaGEst/trajectory_02/rank_00/lead_0227

$$$$
