confid_10
     RDKit          3D

 30 33  0  0  0  0  0  0  0  0999 V2000
   25.3300   26.2600   34.7600 N   0  0  0  0  0  0  0  0  0  0  0  0
   26.1200   25.9200   33.6900 C   0  0  0  0  0  0  0  0  0  0  0  0
   25.6300   25.1100   32.9400 O   0  0  0  0  0  0  0  0  0  0  0  0
   27.5200   26.3800   33.4600 C   0  0  0  0  0  0  0  0  0  0  0  0
   28.1600   26.6300   34.6100 N   0  0  0  0  0  0  0  0  0  0  0  0
   29.4800   26.8500   34.5700 N   0  0  0  0  0  0  0  0  0  0  0  0
   30.1900   26.7800   33.4400 C   0  0  0  0  0  0  0  0  0  0  0  0
   31.5600   27.0500   33.5000 C   0  0  0  0  0  0  0  0  0  0  0  0
   32.2700   27.2400   32.3100 C   0  0  0  0  0  0  0  0  0  0  0  0
   31.6100   27.2500   31.0800 C   0  0  0  0  0  0  0  0  0  0  0  0
   30.2700   26.8700   31.0600 C   0  0  0  0  0  0  0  0  0  0  0  0
   29.5100   26.6900   32.2300 C   0  0  0  0  0  0  0  0  0  0  0  0
   28.1400   26.4100   32.2000 C   0  0  0  0  0  0  0  0  0  0  0  0
   27.4300   26.1300   31.0500 N   0  0  0  0  0  0  0  0  0  0  0  0
   26.4443   27.0840   30.5281 C   0  0  0  0  0  0  0  0  0  0  0  0
   26.4595   27.0567   29.0012 C   0  0  0  0  0  0  0  0  0  0  0  0
   26.4167   25.6725   28.5192 N   0  0  0  0  0  0  0  0  0  0  0  0
   25.8449   25.3736   27.2048 C   0  0  0  0  0  0  0  0  0  0  0  0
   26.7662   25.8360   26.1187 C   0  0  0  0  0  0  0  0  0  0  0  0
   26.5207   26.8099   25.1764 C   0  0  0  0  0  0  0  0  0  0  0  0
   27.6125   26.9110   24.3943 N   0  0  0  0  0  0  0  0  0  0  0  0
   27.7734   27.8204   23.2587 C   0  0  0  0  0  0  0  0  0  0  0  0
   27.3956   27.1569   21.9052 C   0  0  0  0  0  0  0  0  0  0  0  0
   28.3390   25.9760   21.5960 C   0  0  0  0  0  0  0  0  0  0  0  0
   27.5371   28.2097   20.7867 C   0  0  0  0  0  0  0  0  0  0  0  0
   25.9366   26.6560   21.9297 C   0  0  0  0  0  0  0  0  0  0  0  0
   28.5424   26.0589   24.7997 N   0  0  0  0  0  0  0  0  0  0  0  0
   28.0471   25.3875   25.8580 C   0  0  0  0  0  0  0  0  0  0  0  0
   27.1755   24.6683   29.2127 C   0  0  0  0  0  0  0  0  0  0  0  0
   27.6626   24.9095   30.3901 N   0  0  0  0  0  0  0  0  0  0  0  0
  1  2  1  0
  2  3  2  0
  2  4  1  0
  4  5  2  0
  5  6  1  0
  6  7  2  0
  7  8  1  0
  8  9  2  0
  9 10  1  0
 10 11  2  0
 11 12  1  0
 12 13  2  0
 13 14  1  0
 14 15  1  0
 15 16  1  0
 16 17  1  0
 17 18  1  0
 18 19  1  0
 19 20  2  0
 20 21  1  0
 21 22  1  0
 22 23  1  0
 23 24  1  0
 23 25  1  0
 23 26  1  0
 21 27  1  0
 27 28  2  0
 17 29  1  0
 29 30  2  0
 13  4  1  0
 30 14  1  0
 12  7  1  0
 28 19  1  0
M  END
>  <AAScore>  (1) 
7.974383163662643

>  <RootName>  (1) 
./4ZLY/04_DeltaGEst/trajectory_03/rank_01/lead_0212

$$$$
