confid_6
     RDKit          3D

 28 31  0  0  0  0  0  0  0  0999 V2000
   24.5700   26.8800   35.5900 N   0  0  0  0  0  0  0  0  0  0  0  0
   25.5000   26.4000   34.6900 C   0  0  0  0  0  0  0  0  0  0  0  0
   25.1700   25.5200   33.9100 O   0  0  0  0  0  0  0  0  0  0  0  0
   26.8400   27.0200   34.7400 C   0  0  0  0  0  0  0  0  0  0  0  0
   27.3800   27.2800   35.9400 N   0  0  0  0  0  0  0  0  0  0  0  0
   28.6200   27.7400   36.0300 N   0  0  0  0  0  0  0  0  0  0  0  0
   29.3800   28.0000   34.9600 C   0  0  0  0  0  0  0  0  0  0  0  0
   30.6700   28.5000   35.1300 C   0  0  0  0  0  0  0  0  0  0  0  0
   31.5400   28.6100   34.0300 C   0  0  0  0  0  0  0  0  0  0  0  0
   31.0900   28.2200   32.7700 C   0  0  0  0  0  0  0  0  0  0  0  0
   29.8000   27.7000   32.6000 C   0  0  0  0  0  0  0  0  0  0  0  0
   28.9600   27.5500   33.7100 C   0  0  0  0  0  0  0  0  0  0  0  0
   27.6600   27.0300   33.5900 C   0  0  0  0  0  0  0  0  0  0  0  0
   27.1600   26.7400   32.3400 N   0  0  0  0  0  0  0  0  0  0  0  0
   33.1602   29.2643   34.2541 S   0  0  0  0  0  6  0  0  0  0  0  0
   33.8139   28.5291   35.3902 O   0  0  0  0  0  0  0  0  0  0  0  0
   33.9805   29.0302   33.0177 O   0  0  0  0  0  0  0  0  0  0  0  0
   33.0975   31.0192   34.6625 C   0  0  1  0  0  0  0  0  0  0  0  0
   34.4167   31.7351   34.3911 C   0  0  0  0  0  0  0  0  0  0  0  0
   34.7610   31.8322   32.9471 N   0  0  0  0  0  0  0  0  0  0  0  0
   35.3643   33.1519   32.6511 C   0  0  0  0  0  0  0  0  0  0  0  0
   34.1614   33.6272   31.8295 C   0  0  0  0  0  0  0  0  0  0  0  0
   34.5390   34.1201   30.4134 C   0  0  0  0  0  0  0  0  0  0  0  0
   33.3553   34.7065   32.5814 C   0  0  0  0  0  0  0  0  0  0  0  0
   33.6657   32.1543   31.9939 C   0  0  1  0  0  0  0  0  0  0  0  0
   33.8868   31.3091   30.7092 C   0  0  0  0  0  0  0  0  0  0  0  0
   32.1885   31.9251   32.4773 C   0  0  0  0  0  0  0  0  0  0  0  0
   31.9702   31.7884   33.9821 C   0  0  0  0  0  0  0  0  0  0  0  0
  1  2  1  0
  2  3  2  0
  2  4  1  0
  4  5  2  0
  5  6  1  0
  6  7  2  0
  7  8  1  0
  8  9  2  0
  9 10  1  0
 10 11  2  0
 11 12  1  0
 12 13  2  0
 13 14  1  0
  9 15  1  0
 15 16  2  0
 15 17  2  0
 18 15  1  6
 18 19  1  0
 19 20  1  0
 20 21  1  0
 21 22  1  0
 22 23  1  0
 22 24  1  0
 20 25  1  0
 25 26  1  6
 25 27  1  0
 27 28  1  0
 13  4  1  0
 28 18  1  0
 12  7  1  0
 25 22  1  0
M  END
>  <AAScore>  (1) 
61.77279281124071

>  <RootName>  (1) 
./4ZLY/04_DeltaGEst/trajectory_05/rank_01/lead_0326

$$$$
