confid_16
     RDKit          3D

 29 32  0  0  0  0  0  0  0  0999 V2000
   25.3300   26.2600   34.7600 N   0  0  0  0  0  0  0  0  0  0  0  0
   26.1200   25.9200   33.6900 C   0  0  0  0  0  0  0  0  0  0  0  0
   25.6300   25.1100   32.9400 O   0  0  0  0  0  0  0  0  0  0  0  0
   27.5200   26.3800   33.4600 C   0  0  0  0  0  0  0  0  0  0  0  0
   28.1600   26.6300   34.6100 N   0  0  0  0  0  0  0  0  0  0  0  0
   29.4800   26.8500   34.5700 N   0  0  0  0  0  0  0  0  0  0  0  0
   30.1900   26.7800   33.4400 C   0  0  0  0  0  0  0  0  0  0  0  0
   31.5600   27.0500   33.5000 C   0  0  0  0  0  0  0  0  0  0  0  0
   32.2700   27.2400   32.3100 C   0  0  0  0  0  0  0  0  0  0  0  0
   31.6100   27.2500   31.0800 C   0  0  0  0  0  0  0  0  0  0  0  0
   30.2700   26.8700   31.0600 C   0  0  0  0  0  0  0  0  0  0  0  0
   29.5100   26.6900   32.2300 C   0  0  0  0  0  0  0  0  0  0  0  0
   28.1400   26.4100   32.2000 C   0  0  0  0  0  0  0  0  0  0  0  0
   27.4300   26.1300   31.0500 N   0  0  0  0  0  0  0  0  0  0  0  0
   24.1853   25.5068   35.2118 C   0  0  0  0  0  0  0  0  0  0  0  0
   24.1707   24.1592   35.0410 N   0  0  0  0  0  0  0  0  0  0  0  0
   23.1620   23.3771   35.4890 C   0  0  0  0  0  0  0  0  0  0  0  0
   22.0966   23.9309   36.2066 C   0  0  0  0  0  0  0  0  0  0  0  0
   20.9511   23.0267   36.6090 C   0  0  0  0  0  0  0  0  0  0  0  0
   19.7710   23.3625   35.7829 N   0  0  0  0  0  0  0  0  0  0  0  0
   19.6815   22.4840   34.6053 C   0  0  0  0  0  0  0  0  0  0  0  0
   18.4935   23.3670   36.5240 C   0  0  0  0  0  0  0  0  0  0  0  0
   18.4062   24.4598   37.6167 C   0  0  0  0  0  0  0  0  0  0  0  0
   18.4764   25.8092   37.1692 O   0  0  0  0  0  0  0  0  0  0  0  0
   19.6750   26.1618   36.4924 C   0  0  0  0  0  0  0  0  0  0  0  0
   20.9822   25.9515   37.2999 C   0  0  0  0  0  0  0  0  0  0  0  0
   22.0830   25.3328   36.4469 C   0  0  0  0  0  0  0  0  0  0  0  0
   23.1074   26.1395   35.8761 C   0  0  0  0  0  0  0  0  0  0  0  0
   23.0585   27.6492   35.9669 C   0  0  0  0  0  0  0  0  0  0  0  0
  1  2  1  0
  2  3  2  0
  2  4  1  0
  4  5  2  0
  5  6  1  0
  6  7  2  0
  7  8  1  0
  8  9  2  0
  9 10  1  0
 10 11  2  0
 11 12  1  0
 12 13  2  0
 13 14  1  0
  1 15  1  0
 15 16  2  0
 16 17  1  0
 17 18  2  0
 18 19  1  0
 19 20  1  0
 20 21  1  0
 20 22  1  0
 22 23  1  0
 23 24  1  0
 24 25  1  0
 25 26  1  0
 26 27  1  0
 27 28  2  0
 28 29  1  0
 13  4  1  0
 28 15  1  0
 12  7  1  0
 27 18  1  0
M  END
>  <AAScore>  (1) 
4115.839582657674

>  <RootName>  (1) 
./4ZLY/04_DeltaGEst/trajectory_03/rank_00/lead_0374

$$$$
