confid_9
     RDKit          3D

 27 30  0  0  0  0  0  0  0  0999 V2000
   24.6900   26.1200   35.5300 N   0  0  0  0  0  0  0  0  0  0  0  0
   25.6600   25.6700   34.6600 C   0  0  0  0  0  0  0  0  0  0  0  0
   25.2400   25.0100   33.7200 O   0  0  0  0  0  0  0  0  0  0  0  0
   27.0300   26.2200   34.8800 C   0  0  0  0  0  0  0  0  0  0  0  0
   27.3500   26.7300   36.0700 N   0  0  0  0  0  0  0  0  0  0  0  0
   28.5700   27.1800   36.3300 N   0  0  0  0  0  0  0  0  0  0  0  0
   29.5300   27.1100   35.3900 C   0  0  0  0  0  0  0  0  0  0  0  0
   30.8300   27.5700   35.6500 C   0  0  0  0  0  0  0  0  0  0  0  0
   31.8500   27.5400   34.6900 C   0  0  0  0  0  0  0  0  0  0  0  0
   31.5100   27.1200   33.4000 C   0  0  0  0  0  0  0  0  0  0  0  0
   30.2200   26.6300   33.1100 C   0  0  0  0  0  0  0  0  0  0  0  0
   29.2400   26.6600   34.1000 C   0  0  0  0  0  0  0  0  0  0  0  0
   27.9300   26.2600   33.8100 C   0  0  0  0  0  0  0  0  0  0  0  0
   27.5200   25.7100   32.6100 N   0  0  0  0  0  0  0  0  0  0  0  0
   31.1749   28.0861   36.9926 C   0  0  0  0  0  0  0  0  0  0  0  0
   31.6396   29.3726   37.2350 C   0  0  0  0  0  0  0  0  0  0  0  0
   31.8220   29.4498   38.5990 C   0  0  0  0  0  0  0  0  0  0  0  0
   32.4272   30.5565   39.4098 C   0  0  0  0  0  0  0  0  0  0  0  0
   31.9577   30.4559   40.8777 C   0  0  0  0  0  0  0  0  0  0  0  0
   32.0475   29.0764   41.3951 N   0  0  0  0  0  0  0  0  0  0  0  0
   31.6689   27.9678   40.5578 C   0  0  0  0  0  0  0  0  0  0  0  0
   31.5255   26.8144   41.0430 O   0  0  0  0  0  0  0  0  0  0  0  0
   31.5049   28.2251   39.1225 C   0  0  0  0  0  0  0  0  0  0  0  0
   31.1082   27.3762   38.1495 N   0  0  0  0  0  0  0  0  0  0  0  0
   30.7692   25.9614   38.3131 C   0  0  0  0  0  0  0  0  0  0  0  0
   32.5850   28.8480   42.6253 O   0  0  0  0  0  0  0  0  0  0  0  0
   31.5285   28.9118   43.5524 C   0  0  0  0  0  0  0  0  0  0  0  0
  1  2  1  0
  2  3  2  0
  2  4  1  0
  4  5  2  0
  5  6  1  0
  6  7  2  0
  7  8  1  0
  8  9  2  0
  9 10  1  0
 10 11  2  0
 11 12  1  0
 12 13  2  0
 13 14  1  0
  8 15  1  0
 15 16  2  0
 16 17  1  0
 17 18  1  0
 18 19  1  0
 19 20  1  0
 20 21  1  0
 21 22  2  0
 21 23  1  0
 23 24  1  0
 24 25  1  0
 20 26  1  0
 26 27  1  0
 13  4  1  0
 24 15  1  0
 12  7  1  0
 23 17  2  0
M  END
>  <AAScore>  (1) 
40.206186890862185

>  <RootName>  (1) 
./4ZLY/04_DeltaGEst/trajectory_02/rank_01/lead_0021

$$$$
