confid_16
     RDKit          3D

 27 30  0  0  0  0  0  0  0  0999 V2000
   24.5700   26.8800   35.5900 N   0  0  0  0  0  0  0  0  0  0  0  0
   25.5000   26.4000   34.6900 C   0  0  0  0  0  0  0  0  0  0  0  0
   25.1700   25.5200   33.9100 O   0  0  0  0  0  0  0  0  0  0  0  0
   26.8400   27.0200   34.7400 C   0  0  0  0  0  0  0  0  0  0  0  0
   27.3800   27.2800   35.9400 N   0  0  0  0  0  0  0  0  0  0  0  0
   28.6200   27.7400   36.0300 N   0  0  0  0  0  0  0  0  0  0  0  0
   29.3800   28.0000   34.9600 C   0  0  0  0  0  0  0  0  0  0  0  0
   30.6700   28.5000   35.1300 C   0  0  0  0  0  0  0  0  0  0  0  0
   31.5400   28.6100   34.0300 C   0  0  0  0  0  0  0  0  0  0  0  0
   31.0900   28.2200   32.7700 C   0  0  0  0  0  0  0  0  0  0  0  0
   29.8000   27.7000   32.6000 C   0  0  0  0  0  0  0  0  0  0  0  0
   28.9600   27.5500   33.7100 C   0  0  0  0  0  0  0  0  0  0  0  0
   27.6600   27.0300   33.5900 C   0  0  0  0  0  0  0  0  0  0  0  0
   27.1600   26.7400   32.3400 N   0  0  0  0  0  0  0  0  0  0  0  0
   23.1911   26.4853   35.5881 C   0  0  0  0  0  0  0  0  0  0  0  0
   22.5432   26.1144   36.7160 N   0  0  0  0  0  0  0  0  0  0  0  0
   21.2638   25.9345   36.3215 C   0  0  0  0  0  0  0  0  0  0  0  0
   21.1648   26.2118   34.9762 C   0  0  0  0  0  0  0  0  0  0  0  0
   19.9195   26.3404   34.1564 C   0  0  0  0  0  0  0  0  0  0  0  0
   20.2876   26.4797   32.7328 N   0  0  0  0  0  0  0  0  0  0  0  0
   19.1505   26.4913   31.7821 C   0  0  0  0  0  0  0  0  0  0  0  0
   17.9627   27.4315   32.1351 C   0  0  0  0  0  0  0  0  0  0  0  0
   18.3583   28.9146   32.1632 C   0  0  0  0  0  0  0  0  0  0  0  0
   16.8298   27.2208   31.1199 C   0  0  0  0  0  0  0  0  0  0  0  0
   21.3216   27.5116   32.4991 C   0  0  0  0  0  0  0  0  0  0  0  0
   22.6360   27.0737   33.1650 C   0  0  0  0  0  0  0  0  0  0  0  0
   22.3695   26.5835   34.5200 N   0  0  0  0  0  0  0  0  0  0  0  0
  1  2  1  0
  2  3  2  0
  2  4  1  0
  4  5  2  0
  5  6  1  0
  6  7  2  0
  7  8  1  0
  8  9  2  0
  9 10  1  0
 10 11  2  0
 11 12  1  0
 12 13  2  0
 13 14  1  0
  1 15  1  0
 15 16  2  0
 16 17  1  0
 17 18  2  0
 18 19  1  0
 19 20  1  0
 20 21  1  0
 21 22  1  0
 22 23  1  0
 22 24  1  0
 20 25  1  0
 25 26  1  0
 26 27  1  0
 13  4  1  0
 27 15  1  0
 12  7  1  0
 27 18  1  0
M  END
>  <AAScore>  (1) 
452.5254963217851

>  <RootName>  (1) 
./4ZLY/04_DeltaGEst/trajectory_05/rank_00/lead_0275

$$$$
