confid_0
     RDKit          3D

 32 36  0  0  0  0  0  0  0  0999 V2000
   25.3300   26.2600   34.7600 N   0  0  0  0  0  0  0  0  0  0  0  0
   26.1200   25.9200   33.6900 C   0  0  0  0  0  0  0  0  0  0  0  0
   25.6300   25.1100   32.9400 O   0  0  0  0  0  0  0  0  0  0  0  0
   27.5200   26.3800   33.4600 C   0  0  0  0  0  0  0  0  0  0  0  0
   28.1600   26.6300   34.6100 N   0  0  0  0  0  0  0  0  0  0  0  0
   29.4800   26.8500   34.5700 N   0  0  0  0  0  0  0  0  0  0  0  0
   30.1900   26.7800   33.4400 C   0  0  0  0  0  0  0  0  0  0  0  0
   31.5600   27.0500   33.5000 C   0  0  0  0  0  0  0  0  0  0  0  0
   32.2700   27.2400   32.3100 C   0  0  0  0  0  0  0  0  0  0  0  0
   31.6100   27.2500   31.0800 C   0  0  0  0  0  0  0  0  0  0  0  0
   30.2700   26.8700   31.0600 C   0  0  0  0  0  0  0  0  0  0  0  0
   29.5100   26.6900   32.2300 C   0  0  0  0  0  0  0  0  0  0  0  0
   28.1400   26.4100   32.2000 C   0  0  0  0  0  0  0  0  0  0  0  0
   27.4300   26.1300   31.0500 N   0  0  0  0  0  0  0  0  0  0  0  0
   23.9107   26.0249   34.8516 C   0  0  0  0  0  0  0  0  0  0  0  0
   23.2087   26.0715   33.7460 N   0  0  0  0  0  0  0  0  0  0  0  0
   21.8246   25.8848   33.4059 C   0  0  0  0  0  0  0  0  0  0  0  0
   21.0085   25.0790   34.0709 C   0  0  0  0  0  0  0  0  0  0  0  0
   19.9263   24.1014   33.7064 C   0  0  0  0  0  0  0  0  0  0  0  0
   19.9467   23.4376   34.9299 O   0  0  0  0  0  0  0  0  0  0  0  0
   20.8513   24.3906   35.3850 C   0  0  1  0  0  0  0  0  0  0  0  0
   22.1776   23.8227   35.8878 C   0  0  0  0  0  0  0  0  0  0  0  0
   22.7803   24.8887   36.7720 C   0  0  0  0  0  0  0  0  0  0  0  0
   23.3459   26.0010   36.2250 C   0  0  0  0  0  0  0  0  0  0  0  0
   23.5781   27.1840   36.9480 O   0  0  0  0  0  0  0  0  0  0  0  0
   23.1037   27.4970   38.2520 C   0  0  0  0  0  0  0  0  0  0  0  0
   23.8290   26.6519   39.2937 C   0  0  0  0  0  0  0  0  0  0  0  0
   23.4857   25.2307   39.1948 N   0  0  0  0  0  0  0  0  0  0  0  0
   22.5406   24.7419   38.2304 C   0  0  0  0  0  0  0  0  0  0  0  0
   21.5397   24.0892   38.6354 O   0  0  0  0  0  0  0  0  0  0  0  0
   24.0100   24.3040   40.2042 C   0  0  0  0  0  0  0  0  0  0  0  0
   24.8828   23.2330   39.5528 C   0  0  0  0  0  0  0  0  0  0  0  0
  1  2  1  0
  2  3  2  0
  2  4  1  0
  4  5  2  0
  5  6  1  0
  6  7  2  0
  7  8  1  0
  8  9  2  0
  9 10  1  0
 10 11  2  0
 11 12  1  0
 12 13  2  0
 13 14  1  0
  1 15  1  0
 15 16  2  0
 16 17  1  0
 17 18  2  0
 18 19  1  0
 19 20  1  0
 20 21  1  0
 21 22  1  6
 22 23  1  0
 23 24  2  0
 24 25  1  0
 25 26  1  0
 26 27  1  0
 27 28  1  0
 28 29  1  0
 29 30  2  0
 28 31  1  0
 31 32  1  0
 13  4  1  0
 24 15  1  0
 12  7  1  0
 21 18  1  0
 29 23  1  0
M  END
>  <AAScore>  (1) 
6888.3599482404425

>  <RootName>  (1) 
./4ZLY/04_DeltaGEst/trajectory_03/rank_00/lead_0248

$$$$
