confid_15
     RDKit          3D

 26 29  0  0  0  0  0  0  0  0999 V2000
   24.6900   26.1200   35.5300 N   0  0  0  0  0  0  0  0  0  0  0  0
   25.6600   25.6700   34.6600 C   0  0  0  0  0  0  0  0  0  0  0  0
   25.2400   25.0100   33.7200 O   0  0  0  0  0  0  0  0  0  0  0  0
   27.0300   26.2200   34.8800 C   0  0  0  0  0  0  0  0  0  0  0  0
   27.3500   26.7300   36.0700 N   0  0  0  0  0  0  0  0  0  0  0  0
   28.5700   27.1800   36.3300 N   0  0  0  0  0  0  0  0  0  0  0  0
   29.5300   27.1100   35.3900 C   0  0  0  0  0  0  0  0  0  0  0  0
   30.8300   27.5700   35.6500 C   0  0  0  0  0  0  0  0  0  0  0  0
   31.8500   27.5400   34.6900 C   0  0  0  0  0  0  0  0  0  0  0  0
   31.5100   27.1200   33.4000 C   0  0  0  0  0  0  0  0  0  0  0  0
   30.2200   26.6300   33.1100 C   0  0  0  0  0  0  0  0  0  0  0  0
   29.2400   26.6600   34.1000 C   0  0  0  0  0  0  0  0  0  0  0  0
   27.9300   26.2600   33.8100 C   0  0  0  0  0  0  0  0  0  0  0  0
   27.5200   25.7100   32.6100 N   0  0  0  0  0  0  0  0  0  0  0  0
   23.4923   25.3936   35.8540 C   0  0  0  0  0  0  0  0  0  0  0  0
   22.5145   26.0197   36.6184 N   0  0  0  0  0  0  0  0  0  0  0  0
   21.3434   25.4063   36.9956 C   0  0  0  0  0  0  0  0  0  0  0  0
   21.1930   24.1093   36.5715 C   0  0  0  0  0  0  0  0  0  0  0  0
   20.3605   22.9408   36.5673 O   0  0  0  0  0  0  0  0  0  0  0  0
   21.3505   22.3435   35.7945 C   0  0  2  0  0  0  0  0  0  0  0  0
   21.9728   21.1315   36.4988 C   0  0  0  0  0  0  0  0  0  0  0  0
   23.0676   20.6865   35.7799 F   0  0  0  0  0  0  0  0  0  0  0  0
   21.0393   20.1140   36.5676 F   0  0  0  0  0  0  0  0  0  0  0  0
   22.3757   21.4588   37.7831 F   0  0  0  0  0  0  0  0  0  0  0  0
   22.1841   23.5049   35.8156 C   0  0  0  0  0  0  0  0  0  0  0  0
   23.3336   24.0876   35.4357 N   0  0  0  0  0  0  0  0  0  0  0  0
  1  2  1  0
  2  3  2  0
  2  4  1  0
  4  5  2  0
  5  6  1  0
  6  7  2  0
  7  8  1  0
  8  9  2  0
  9 10  1  0
 10 11  2  0
 11 12  1  0
 12 13  2  0
 13 14  1  0
  1 15  1  0
 15 16  2  0
 16 17  1  0
 17 18  2  0
 18 19  1  0
 19 20  1  0
 20 21  1  1
 21 22  1  0
 21 23  1  0
 21 24  1  0
 20 25  1  0
 25 26  2  0
 13  4  1  0
 26 15  1  0
 12  7  1  0
 25 18  1  0
M  END
>  <AAScore>  (1) 
6081.489099931953

>  <RootName>  (1) 
./4ZLY/04_DeltaGEst/trajectory_02/rank_00/lead_0238

$$$$
