confid_10
     RDKit          3D

 28 31  0  0  0  0  0  0  0  0999 V2000
   24.5500   26.3900   36.2500 N   0  0  0  0  0  0  0  0  0  0  0  0
   25.6000   26.1300   35.4000 C   0  0  0  0  0  0  0  0  0  0  0  0
   25.4300   25.4300   34.4200 O   0  0  0  0  0  0  0  0  0  0  0  0
   26.9800   26.6300   35.7100 C   0  0  0  0  0  0  0  0  0  0  0  0
   27.3200   26.8200   36.9800 N   0  0  0  0  0  0  0  0  0  0  0  0
   28.4700   27.4000   37.3100 N   0  0  0  0  0  0  0  0  0  0  0  0
   29.4000   27.6300   36.3700 C   0  0  0  0  0  0  0  0  0  0  0  0
   30.6600   28.0500   36.8000 C   0  0  0  0  0  0  0  0  0  0  0  0
   31.5700   28.3600   35.7800 C   0  0  0  0  0  0  0  0  0  0  0  0
   31.3700   28.1000   34.4300 C   0  0  0  0  0  0  0  0  0  0  0  0
   30.1200   27.5900   34.0500 C   0  0  0  0  0  0  0  0  0  0  0  0
   29.1500   27.3400   35.0300 C   0  0  0  0  0  0  0  0  0  0  0  0
   27.8800   26.8900   34.6600 C   0  0  0  0  0  0  0  0  0  0  0  0
   27.4800   26.6100   33.3700 N   0  0  0  0  0  0  0  0  0  0  0  0
   30.9785   28.3600   38.2398 C   0  0  0  0  0  0  0  0  0  0  0  0
   30.4145   29.6512   38.5971 N   0  0  0  0  0  0  0  0  0  0  0  0
   30.7127   31.0289   38.2723 C   0  0  0  0  0  0  0  0  0  0  0  0
   29.5265   31.5333   38.9465 C   0  0  2  0  0  0  0  0  0  0  0  0
   28.4788   32.1411   38.0020 C   0  0  0  0  0  0  0  0  0  0  0  0
   29.8202   32.4356   40.1401 C   0  0  0  0  0  0  0  0  0  0  0  0
   30.6758   33.5443   39.9831 C   0  0  0  0  0  0  0  0  0  0  0  0
   30.9169   34.4156   41.0490 C   0  0  0  0  0  0  0  0  0  0  0  0
   30.2883   34.2089   42.2793 C   0  0  0  0  0  0  0  0  0  0  0  0
   30.5886   35.3059   43.6148 Cl  0  0  0  0  0  0  0  0  0  0  0  0
   29.4071   33.1365   42.4389 C   0  0  0  0  0  0  0  0  0  0  0  0
   29.1629   32.2625   41.3751 C   0  0  0  0  0  0  0  0  0  0  0  0
   29.1928   30.1053   39.2961 C   0  0  0  0  0  0  0  0  0  0  0  0
   28.2461   29.5247   39.8895 O   0  0  0  0  0  0  0  0  0  0  0  0
  1  2  1  0
  2  3  2  0
  2  4  1  0
  4  5  2  0
  5  6  1  0
  6  7  2  0
  7  8  1  0
  8  9  2  0
  9 10  1  0
 10 11  2  0
 11 12  1  0
 12 13  2  0
 13 14  1  0
  8 15  1  0
 15 16  1  0
 16 17  1  0
 17 18  1  0
 18 19  1  6
 18 20  1  0
 20 21  2  0
 21 22  1  0
 22 23  2  0
 23 24  1  0
 23 25  1  0
 25 26  2  0
 18 27  1  0
 27 28  2  0
 13  4  1  0
 27 16  1  0
 12  7  1  0
 26 20  1  0
M  END
>  <AAScore>  (1) 
8.341636773350244

>  <RootName>  (1) 
./4ZLY/04_DeltaGEst/trajectory_01/rank_01/lead_0117

$$$$
