confid_13
     RDKit          3D

 27 30  0  0  0  0  0  0  0  0999 V2000
   24.2000   26.2400   35.6900 N   0  0  0  0  0  0  0  0  0  0  0  0
   24.8500   26.2800   34.4800 C   0  0  0  0  0  0  0  0  0  0  0  0
   24.3100   25.7400   33.5400 O   0  0  0  0  0  0  0  0  0  0  0  0
   26.1800   26.9700   34.4700 C   0  0  0  0  0  0  0  0  0  0  0  0
   26.6500   27.6000   35.5500 N   0  0  0  0  0  0  0  0  0  0  0  0
   27.7900   28.2700   35.6200 N   0  0  0  0  0  0  0  0  0  0  0  0
   28.5400   28.3000   34.5100 C   0  0  0  0  0  0  0  0  0  0  0  0
   29.7700   28.9400   34.5600 C   0  0  0  0  0  0  0  0  0  0  0  0
   30.7000   28.8900   33.5000 C   0  0  0  0  0  0  0  0  0  0  0  0
   30.3700   28.1400   32.3700 C   0  0  0  0  0  0  0  0  0  0  0  0
   29.1200   27.5200   32.2800 C   0  0  0  0  0  0  0  0  0  0  0  0
   28.2100   27.6100   33.3300 C   0  0  0  0  0  0  0  0  0  0  0  0
   26.9700   26.9700   33.3100 C   0  0  0  0  0  0  0  0  0  0  0  0
   26.5300   26.2400   32.2200 N   0  0  0  0  0  0  0  0  0  0  0  0
   30.1297   29.6824   35.7333 N   0  0  0  0  0  0  0  0  0  0  0  0
   30.6531   29.0822   36.9600 C   0  0  0  0  0  0  0  0  0  0  0  0
   31.1336   30.2665   37.8351 C   0  0  0  0  0  0  0  0  0  0  0  0
   30.9019   31.4612   36.9683 C   0  0  0  0  0  0  0  0  0  0  0  0
   31.1818   32.8015   37.2598 C   0  0  0  0  0  0  0  0  0  0  0  0
   31.7759   33.0861   38.5017 O   0  0  0  0  0  0  0  0  0  0  0  0
   32.1033   34.3797   38.9980 C   0  0  0  0  0  0  0  0  0  0  0  0
   30.8521   33.7837   36.2801 C   0  0  0  0  0  0  0  0  0  0  0  0
   31.1047   35.1415   36.5343 O   0  0  0  0  0  0  0  0  0  0  0  0
   30.8142   36.2048   35.6343 C   0  0  0  0  0  0  0  0  0  0  0  0
   30.2668   33.3689   35.0539 C   0  0  0  0  0  0  0  0  0  0  0  0
   30.0057   32.0152   34.8038 C   0  0  0  0  0  0  0  0  0  0  0  0
   30.3369   31.0834   35.7845 C   0  0  0  0  0  0  0  0  0  0  0  0
  1  2  1  0
  2  3  2  0
  2  4  1  0
  4  5  2  0
  5  6  1  0
  6  7  2  0
  7  8  1  0
  8  9  2  0
  9 10  1  0
 10 11  2  0
 11 12  1  0
 12 13  2  0
 13 14  1  0
  8 15  1  0
 15 16  1  0
 16 17  1  0
 17 18  1  0
 18 19  2  0
 19 20  1  0
 20 21  1  0
 19 22  1  0
 22 23  1  0
 23 24  1  0
 22 25  2  0
 25 26  1  0
 26 27  2  0
 13  4  1  0
 27 15  1  0
 12  7  1  0
 27 18  1  0
M  END
>  <AAScore>  (1) 
-6.872626656341818

>  <RootName>  (1) 
./4ZLY/04_DeltaGEst/trajectory_04/rank_01/lead_0024

$$$$
