confid_10
     RDKit          3D

 27 30  0  0  0  0  0  0  0  0999 V2000
   25.3300   26.2600   34.7600 N   0  0  0  0  0  0  0  0  0  0  0  0
   26.1200   25.9200   33.6900 C   0  0  0  0  0  0  0  0  0  0  0  0
   25.6300   25.1100   32.9400 O   0  0  0  0  0  0  0  0  0  0  0  0
   27.5200   26.3800   33.4600 C   0  0  0  0  0  0  0  0  0  0  0  0
   28.1600   26.6300   34.6100 N   0  0  0  0  0  0  0  0  0  0  0  0
   29.4800   26.8500   34.5700 N   0  0  0  0  0  0  0  0  0  0  0  0
   30.1900   26.7800   33.4400 C   0  0  0  0  0  0  0  0  0  0  0  0
   31.5600   27.0500   33.5000 C   0  0  0  0  0  0  0  0  0  0  0  0
   32.2700   27.2400   32.3100 C   0  0  0  0  0  0  0  0  0  0  0  0
   31.6100   27.2500   31.0800 C   0  0  0  0  0  0  0  0  0  0  0  0
   30.2700   26.8700   31.0600 C   0  0  0  0  0  0  0  0  0  0  0  0
   29.5100   26.6900   32.2300 C   0  0  0  0  0  0  0  0  0  0  0  0
   28.1400   26.4100   32.2000 C   0  0  0  0  0  0  0  0  0  0  0  0
   27.4300   26.1300   31.0500 N   0  0  0  0  0  0  0  0  0  0  0  0
   23.9606   25.8672   34.9630 C   0  0  0  0  0  0  0  0  0  0  0  0
   23.2397   25.1248   34.0886 N   0  0  0  0  0  0  0  0  0  0  0  0
   21.9717   24.9321   34.5361 C   0  0  0  0  0  0  0  0  0  0  0  0
   20.9527   24.1097   33.8009 C   0  0  0  0  0  0  0  0  0  0  0  0
   19.5705   24.4012   34.2587 N   0  0  0  0  0  0  0  0  0  0  0  0
   19.0286   25.6485   33.6720 C   0  0  0  0  0  0  0  0  0  0  0  0
   18.3729   25.3657   32.3206 C   0  0  0  0  0  0  0  0  0  0  0  0
   17.3357   24.4224   32.4910 O   0  0  0  0  0  0  0  0  0  0  0  0
   16.7384   24.1541   31.2426 C   0  0  0  0  0  0  0  0  0  0  0  0
   19.4677   24.3805   35.7392 C   0  0  0  0  0  0  0  0  0  0  0  0
   20.3454   25.4574   36.4105 C   0  0  0  0  0  0  0  0  0  0  0  0
   21.6942   25.4881   35.7721 C   0  0  0  0  0  0  0  0  0  0  0  0
   23.0562   26.3054   36.3195 S   0  0  0  0  0  0  0  0  0  0  0  0
  1  2  1  0
  2  3  2  0
  2  4  1  0
  4  5  2  0
  5  6  1  0
  6  7  2  0
  7  8  1  0
  8  9  2  0
  9 10  1  0
 10 11  2  0
 11 12  1  0
 12 13  2  0
 13 14  1  0
  1 15  1  0
 15 16  2  0
 16 17  1  0
 17 18  1  0
 18 19  1  0
 19 20  1  0
 20 21  1  0
 21 22  1  0
 22 23  1  0
 19 24  1  0
 24 25  1  0
 25 26  1  0
 26 27  1  0
 13  4  1  0
 27 15  1  0
 12  7  1  0
 26 17  2  0
M  END
>  <AAScore>  (1) 
5541.702712547572

>  <RootName>  (1) 
./4ZLY/04_DeltaGEst/trajectory_03/rank_00/lead_0026

$$$$
