confid_0
     RDKit          3D

 27 30  0  0  0  0  0  0  0  0999 V2000
   24.4800   26.1000   36.1300 N   0  0  0  0  0  0  0  0  0  0  0  0
   25.2500   26.2500   34.9900 C   0  0  0  0  0  0  0  0  0  0  0  0
   24.7400   25.7600   33.9900 O   0  0  0  0  0  0  0  0  0  0  0  0
   26.5900   26.8900   34.9600 C   0  0  0  0  0  0  0  0  0  0  0  0
   27.0600   27.2400   36.1600 N   0  0  0  0  0  0  0  0  0  0  0  0
   28.3000   27.7100   36.2400 N   0  0  0  0  0  0  0  0  0  0  0  0
   29.0500   27.9600   35.1500 C   0  0  0  0  0  0  0  0  0  0  0  0
   30.3400   28.4900   35.2600 C   0  0  0  0  0  0  0  0  0  0  0  0
   31.1100   28.8200   34.1400 C   0  0  0  0  0  0  0  0  0  0  0  0
   30.5200   28.6700   32.8800 C   0  0  0  0  0  0  0  0  0  0  0  0
   29.2900   28.0200   32.7700 C   0  0  0  0  0  0  0  0  0  0  0  0
   28.5200   27.7100   33.8900 C   0  0  0  0  0  0  0  0  0  0  0  0
   27.2700   27.0800   33.7600 C   0  0  0  0  0  0  0  0  0  0  0  0
   26.7500   26.8800   32.4900 N   0  0  0  0  0  0  0  0  0  0  0  0
   23.4816   25.0747   36.3155 C   0  0  0  0  0  0  0  0  0  0  0  0
   23.5818   23.9045   35.6126 N   0  0  0  0  0  0  0  0  0  0  0  0
   22.6979   22.8827   35.7598 C   0  0  0  0  0  0  0  0  0  0  0  0
   21.6794   23.0091   36.6935 C   0  0  0  0  0  0  0  0  0  0  0  0
   20.5988   22.0293   36.9895 C   0  0  0  0  0  0  0  0  0  0  0  0
   19.8769   22.7709   38.0652 C   0  0  0  0  0  0  0  0  0  0  0  0
   18.8759   22.3083   38.6744 O   0  0  0  0  0  0  0  0  0  0  0  0
   20.4628   24.0387   38.3778 N   0  0  0  0  0  0  0  0  0  0  0  0
   21.5648   24.1467   37.4679 C   0  0  0  0  0  0  0  0  0  0  0  0
   22.4187   25.2510   37.2443 C   0  0  0  0  0  0  0  0  0  0  0  0
   22.1820   26.5906   37.8904 C   0  0  0  0  0  0  0  0  0  0  0  0
   20.3830   24.6105   39.7262 C   0  0  0  0  0  0  0  0  0  0  0  0
   19.0920   25.4042   39.8926 C   0  0  0  0  0  0  0  0  0  0  0  0
  1  2  1  0
  2  3  2  0
  2  4  1  0
  4  5  2  0
  5  6  1  0
  6  7  2  0
  7  8  1  0
  8  9  2  0
  9 10  1  0
 10 11  2  0
 11 12  1  0
 12 13  2  0
 13 14  1  0
  1 15  1  0
 15 16  2  0
 16 17  1  0
 17 18  2  0
 18 19  1  0
 19 20  1  0
 20 21  2  0
 20 22  1  0
 22 23  1  0
 23 24  2  0
 24 25  1  0
 22 26  1  0
 26 27  1  0
 13  4  1  0
 24 15  1  0
 12  7  1  0
 23 18  1  0
M  END
>  <AAScore>  (1) 
20435.549853650875

>  <RootName>  (1) 
./4ZLY/04_DeltaGEst/trajectory_00/rank_00/lead_0180

$$$$
