confid_15
     RDKit          3D

 28 31  0  0  0  0  0  0  0  0999 V2000
   24.2000   26.2400   35.6900 N   0  0  0  0  0  0  0  0  0  0  0  0
   24.8500   26.2800   34.4800 C   0  0  0  0  0  0  0  0  0  0  0  0
   24.3100   25.7400   33.5400 O   0  0  0  0  0  0  0  0  0  0  0  0
   26.1800   26.9700   34.4700 C   0  0  0  0  0  0  0  0  0  0  0  0
   26.6500   27.6000   35.5500 N   0  0  0  0  0  0  0  0  0  0  0  0
   27.7900   28.2700   35.6200 N   0  0  0  0  0  0  0  0  0  0  0  0
   28.5400   28.3000   34.5100 C   0  0  0  0  0  0  0  0  0  0  0  0
   29.7700   28.9400   34.5600 C   0  0  0  0  0  0  0  0  0  0  0  0
   30.7000   28.8900   33.5000 C   0  0  0  0  0  0  0  0  0  0  0  0
   30.3700   28.1400   32.3700 C   0  0  0  0  0  0  0  0  0  0  0  0
   29.1200   27.5200   32.2800 C   0  0  0  0  0  0  0  0  0  0  0  0
   28.2100   27.6100   33.3300 C   0  0  0  0  0  0  0  0  0  0  0  0
   26.9700   26.9700   33.3100 C   0  0  0  0  0  0  0  0  0  0  0  0
   26.5300   26.2400   32.2200 N   0  0  0  0  0  0  0  0  0  0  0  0
   22.7661   26.1323   35.8219 C   0  0  0  0  0  0  0  0  0  0  0  0
   21.9693   26.4257   34.7593 N   0  0  0  0  0  0  0  0  0  0  0  0
   20.6097   26.3730   34.7930 C   0  0  0  0  0  0  0  0  0  0  0  0
   19.8942   26.7639   33.5233 C   0  0  0  0  0  0  0  0  0  0  0  0
   19.1869   28.1201   33.6315 C   0  0  0  0  0  0  0  0  0  0  0  0
   18.3043   28.2105   34.8126 N   0  0  0  0  0  0  0  0  0  0  0  0
   17.8130   29.5920   34.9508 C   0  0  0  0  0  0  0  0  0  0  0  0
   17.1650   27.2699   34.7252 C   0  0  0  0  0  0  0  0  0  0  0  0
   17.5378   25.8733   35.2490 C   0  0  0  0  0  0  0  0  0  0  0  0
   18.5769   25.9230   36.2239 O   0  0  0  0  0  0  0  0  0  0  0  0
   19.9677   26.0070   36.0102 C   0  0  0  0  0  0  0  0  0  0  0  0
   20.7709   25.7200   37.1181 C   0  0  0  0  0  0  0  0  0  0  0  0
   22.1683   25.7654   37.0428 C   0  0  0  0  0  0  0  0  0  0  0  0
   22.9890   25.4286   38.2581 C   0  0  0  0  0  0  0  0  0  0  0  0
  1  2  1  0
  2  3  2  0
  2  4  1  0
  4  5  2  0
  5  6  1  0
  6  7  2  0
  7  8  1  0
  8  9  2  0
  9 10  1  0
 10 11  2  0
 11 12  1  0
 12 13  2  0
 13 14  1  0
  1 15  1  0
 15 16  2  0
 16 17  1  0
 17 18  1  0
 18 19  1  0
 19 20  1  0
 20 21  1  0
 20 22  1  0
 22 23  1  0
 23 24  1  0
 24 25  1  0
 25 26  1  0
 26 27  2  0
 27 28  1  0
 13  4  1  0
 27 15  1  0
 12  7  1  0
 25 17  2  0
M  END
>  <AAScore>  (1) 
525.3366389165676

>  <RootName>  (1) 
./4ZLY/04_DeltaGEst/trajectory_04/rank_00/lead_0114

$$$$
