confid_10
     RDKit          3D

 27 30  0  0  0  0  0  0  0  0999 V2000
   24.6900   26.1200   35.5300 N   0  0  0  0  0  0  0  0  0  0  0  0
   25.6600   25.6700   34.6600 C   0  0  0  0  0  0  0  0  0  0  0  0
   25.2400   25.0100   33.7200 O   0  0  0  0  0  0  0  0  0  0  0  0
   27.0300   26.2200   34.8800 C   0  0  0  0  0  0  0  0  0  0  0  0
   27.3500   26.7300   36.0700 N   0  0  0  0  0  0  0  0  0  0  0  0
   28.5700   27.1800   36.3300 N   0  0  0  0  0  0  0  0  0  0  0  0
   29.5300   27.1100   35.3900 C   0  0  0  0  0  0  0  0  0  0  0  0
   30.8300   27.5700   35.6500 C   0  0  0  0  0  0  0  0  0  0  0  0
   31.8500   27.5400   34.6900 C   0  0  0  0  0  0  0  0  0  0  0  0
   31.5100   27.1200   33.4000 C   0  0  0  0  0  0  0  0  0  0  0  0
   30.2200   26.6300   33.1100 C   0  0  0  0  0  0  0  0  0  0  0  0
   29.2400   26.6600   34.1000 C   0  0  0  0  0  0  0  0  0  0  0  0
   27.9300   26.2600   33.8100 C   0  0  0  0  0  0  0  0  0  0  0  0
   27.5200   25.7100   32.6100 N   0  0  0  0  0  0  0  0  0  0  0  0
   23.2826   26.1992   35.2354 C   0  0  0  0  0  0  0  0  0  0  0  0
   22.3823   26.0259   36.2525 N   0  0  0  0  0  0  0  0  0  0  0  0
   21.0348   26.0801   36.0466 C   0  0  0  0  0  0  0  0  0  0  0  0
   20.5693   26.3262   34.7586 C   0  0  0  0  0  0  0  0  0  0  0  0
   19.1887   26.4040   34.2579 C   0  0  0  0  0  0  0  0  0  0  0  0
   19.2660   26.6016   32.8502 O   0  0  0  0  0  0  0  0  0  0  0  0
   20.6412   26.7343   32.4909 C   0  0  2  0  0  0  0  0  0  0  0  0
   20.8859   28.1487   31.9428 C   0  0  0  0  0  0  0  0  0  0  0  0
   20.9994   25.6638   31.4441 C   0  0  0  0  0  0  0  0  0  0  0  0
   20.1373   25.7758   30.3294 O   0  0  0  0  0  0  0  0  0  0  0  0
   20.5477   24.8707   29.3282 C   0  0  0  0  0  0  0  0  0  0  0  0
   21.4251   26.5225   33.7383 C   0  0  0  0  0  0  0  0  0  0  0  0
   22.8084   26.4842   33.9343 C   0  0  0  0  0  0  0  0  0  0  0  0
  1  2  1  0
  2  3  2  0
  2  4  1  0
  4  5  2  0
  5  6  1  0
  6  7  2  0
  7  8  1  0
  8  9  2  0
  9 10  1  0
 10 11  2  0
 11 12  1  0
 12 13  2  0
 13 14  1  0
  1 15  1  0
 15 16  2  0
 16 17  1  0
 17 18  2  0
 18 19  1  0
 19 20  1  0
 20 21  1  0
 21 22  1  6
 21 23  1  0
 23 24  1  0
 24 25  1  0
 21 26  1  0
 26 27  2  0
 13  4  1  0
 27 15  1  0
 12  7  1  0
 26 18  1  0
M  END
>  <AAScore>  (1) 
273.9816396651668

>  <RootName>  (1) 
./4ZLY/04_DeltaGEst/trajectory_02/rank_00/lead_0314

$$$$
