confid_18
     RDKit          3D

 29 31  0  0  0  0  0  0  0  0999 V2000
   24.5700   26.8800   35.5900 N   0  0  0  0  0  0  0  0  0  0  0  0
   25.5000   26.4000   34.6900 C   0  0  0  0  0  0  0  0  0  0  0  0
   25.1700   25.5200   33.9100 O   0  0  0  0  0  0  0  0  0  0  0  0
   26.8400   27.0200   34.7400 C   0  0  0  0  0  0  0  0  0  0  0  0
   27.3800   27.2800   35.9400 N   0  0  0  0  0  0  0  0  0  0  0  0
   28.6200   27.7400   36.0300 N   0  0  0  0  0  0  0  0  0  0  0  0
   29.3800   28.0000   34.9600 C   0  0  0  0  0  0  0  0  0  0  0  0
   30.6700   28.5000   35.1300 C   0  0  0  0  0  0  0  0  0  0  0  0
   31.5400   28.6100   34.0300 C   0  0  0  0  0  0  0  0  0  0  0  0
   31.0900   28.2200   32.7700 C   0  0  0  0  0  0  0  0  0  0  0  0
   29.8000   27.7000   32.6000 C   0  0  0  0  0  0  0  0  0  0  0  0
   28.9600   27.5500   33.7100 C   0  0  0  0  0  0  0  0  0  0  0  0
   27.6600   27.0300   33.5900 C   0  0  0  0  0  0  0  0  0  0  0  0
   27.1600   26.7400   32.3400 N   0  0  0  0  0  0  0  0  0  0  0  0
   33.1796   29.2103   34.2615 S   0  0  0  0  0  6  0  0  0  0  0  0
   33.1179   30.4488   35.1121 O   0  0  0  0  0  0  0  0  0  0  0  0
   33.7812   29.5711   32.9308 O   0  0  0  0  0  0  0  0  0  0  0  0
   34.1425   27.9789   35.0464 N   0  0  0  0  0  0  0  0  0  0  0  0
   34.2494   26.7870   34.1691 C   0  0  0  0  0  0  0  0  0  0  0  0
   35.0205   25.6040   34.8075 C   0  0  0  0  0  0  0  0  0  0  0  0
   36.0047   24.8672   33.8551 C   0  0  2  0  0  0  0  0  0  0  0  0
   36.7233   23.9817   34.6461 F   0  0  0  0  0  0  0  0  0  0  0  0
   37.0372   25.7898   33.1272 C   0  0  0  0  0  0  0  0  0  0  0  0
   37.4916   27.0447   33.8937 C   0  0  0  0  0  0  0  0  0  0  0  0
   36.6606   28.1272   33.5177 O   0  0  0  0  0  0  0  0  0  0  0  0
   36.4511   29.0336   34.5760 C   0  0  0  0  0  0  0  0  0  0  0  0
   35.4005   28.5490   35.6007 C   0  0  0  0  0  0  0  0  0  0  0  0
   35.1963   24.0336   32.8257 C   0  0  0  0  0  0  0  0  0  0  0  0
   36.0681   23.1112   31.9692 C   0  0  0  0  0  0  0  0  0  0  0  0
  1  2  1  0
  2  3  2  0
  2  4  1  0
  4  5  2  0
  5  6  1  0
  6  7  2  0
  7  8  1  0
  8  9  2  0
  9 10  1  0
 10 11  2  0
 11 12  1  0
 12 13  2  0
 13 14  1  0
  9 15  1  0
 15 16  2  0
 15 17  2  0
 15 18  1  0
 18 19  1  0
 19 20  1  0
 20 21  1  0
 21 22  1  1
 21 23  1  0
 23 24  1  0
 24 25  1  0
 25 26  1  0
 26 27  1  0
 21 28  1  0
 28 29  1  0
 13  4  1  0
 27 18  1  0
 12  7  1  0
M  END
>  <AAScore>  (1) 
729.4485532487932

>  <RootName>  (1) 
./4ZLY/04_DeltaGEst/trajectory_05/rank_01/lead_0412

$$$$
