confid_1
     RDKit          3D

 33 37  0  0  0  0  0  0  0  0999 V2000
   24.2000   26.2400   35.6900 N   0  0  0  0  0  0  0  0  0  0  0  0
   24.8500   26.2800   34.4800 C   0  0  0  0  0  0  0  0  0  0  0  0
   24.3100   25.7400   33.5400 O   0  0  0  0  0  0  0  0  0  0  0  0
   26.1800   26.9700   34.4700 C   0  0  0  0  0  0  0  0  0  0  0  0
   26.6500   27.6000   35.5500 N   0  0  0  0  0  0  0  0  0  0  0  0
   27.7900   28.2700   35.6200 N   0  0  0  0  0  0  0  0  0  0  0  0
   28.5400   28.3000   34.5100 C   0  0  0  0  0  0  0  0  0  0  0  0
   29.7700   28.9400   34.5600 C   0  0  0  0  0  0  0  0  0  0  0  0
   30.7000   28.8900   33.5000 C   0  0  0  0  0  0  0  0  0  0  0  0
   30.3700   28.1400   32.3700 C   0  0  0  0  0  0  0  0  0  0  0  0
   29.1200   27.5200   32.2800 C   0  0  0  0  0  0  0  0  0  0  0  0
   28.2100   27.6100   33.3300 C   0  0  0  0  0  0  0  0  0  0  0  0
   26.9700   26.9700   33.3100 C   0  0  0  0  0  0  0  0  0  0  0  0
   26.5300   26.2400   32.2200 N   0  0  0  0  0  0  0  0  0  0  0  0
   30.1429   29.6835   35.7411 N   0  0  0  0  0  0  0  0  0  0  0  0
   29.3181   30.8100   36.2048 C   0  0  0  0  0  0  0  0  0  0  0  0
   30.1631   31.8437   36.9750 C   0  0  0  0  0  0  0  0  0  0  0  0
   31.5606   32.0412   36.3245 C   0  0  0  0  0  0  0  0  0  0  0  0
   31.3810   32.5865   34.8621 C   0  0  0  0  0  0  0  0  0  0  0  0
   32.5058   33.5331   34.4060 C   0  0  0  0  0  0  0  0  0  0  0  0
   33.7514   33.2217   35.1116 N   0  0  0  0  0  0  0  0  0  0  0  0
   33.7628   33.3388   36.5759 C   0  0  0  0  0  0  0  0  0  0  0  0
   32.3570   33.0851   37.1616 C   0  0  0  0  0  0  0  0  0  0  0  0
   34.9144   32.7206   34.4269 C   0  0  0  0  0  0  0  0  0  0  0  0
   36.0611   33.0116   34.8661 O   0  0  0  0  0  0  0  0  0  0  0  0
   34.7899   31.8273   33.2127 C   0  0  0  0  0  0  0  0  0  0  0  0
   35.6439   30.5573   33.3634 C   0  0  0  0  0  0  0  0  0  0  0  0
   35.5994   29.7466   32.0612 C   0  0  0  0  0  0  0  0  0  0  0  0
   36.0574   30.5224   30.9680 O   0  0  0  0  0  0  0  0  0  0  0  0
   35.1814   31.6134   30.7447 C   0  0  0  0  0  0  0  0  0  0  0  0
   35.1958   32.5781   31.9366 C   0  0  0  0  0  0  0  0  0  0  0  0
   32.3336   30.6713   36.3169 C   0  0  0  0  0  0  0  0  0  0  0  0
   31.4270   29.4310   36.4000 C   0  0  0  0  0  0  0  0  0  0  0  0
  1  2  1  0
  2  3  2  0
  2  4  1  0
  4  5  2  0
  5  6  1  0
  6  7  2  0
  7  8  1  0
  8  9  2  0
  9 10  1  0
 10 11  2  0
 11 12  1  0
 12 13  2  0
 13 14  1  0
  8 15  1  0
 15 16  1  0
 16 17  1  0
 17 18  1  0
 18 19  1  0
 19 20  1  0
 20 21  1  0
 21 22  1  0
 22 23  1  0
 21 24  1  0
 24 25  2  0
 24 26  1  0
 26 27  1  0
 27 28  1  0
 28 29  1  0
 29 30  1  0
 30 31  1  0
 18 32  1  0
 32 33  1  0
 13  4  1  0
 33 15  1  0
 12  7  1  0
 23 18  1  0
 31 26  1  0
M  END
>  <AAScore>  (1) 
-8.586389525472354

>  <RootName>  (1) 
./4ZLY/04_DeltaGEst/trajectory_04/rank_01/lead_0417

$$$$
