confid_6
     RDKit          3D

 28 31  0  0  0  0  0  0  0  0999 V2000
   24.6900   26.1200   35.5300 N   0  0  0  0  0  0  0  0  0  0  0  0
   25.6600   25.6700   34.6600 C   0  0  0  0  0  0  0  0  0  0  0  0
   25.2400   25.0100   33.7200 O   0  0  0  0  0  0  0  0  0  0  0  0
   27.0300   26.2200   34.8800 C   0  0  0  0  0  0  0  0  0  0  0  0
   27.3500   26.7300   36.0700 N   0  0  0  0  0  0  0  0  0  0  0  0
   28.5700   27.1800   36.3300 N   0  0  0  0  0  0  0  0  0  0  0  0
   29.5300   27.1100   35.3900 C   0  0  0  0  0  0  0  0  0  0  0  0
   30.8300   27.5700   35.6500 C   0  0  0  0  0  0  0  0  0  0  0  0
   31.8500   27.5400   34.6900 C   0  0  0  0  0  0  0  0  0  0  0  0
   31.5100   27.1200   33.4000 C   0  0  0  0  0  0  0  0  0  0  0  0
   30.2200   26.6300   33.1100 C   0  0  0  0  0  0  0  0  0  0  0  0
   29.2400   26.6600   34.1000 C   0  0  0  0  0  0  0  0  0  0  0  0
   27.9300   26.2600   33.8100 C   0  0  0  0  0  0  0  0  0  0  0  0
   27.5200   25.7100   32.6100 N   0  0  0  0  0  0  0  0  0  0  0  0
   31.1840   28.0736   37.0009 C   0  0  0  0  0  0  0  0  0  0  0  0
   31.7463   29.3510   37.1524 C   0  0  0  0  0  0  0  0  0  0  0  0
   32.0922   29.8375   38.4226 C   0  0  0  0  0  0  0  0  0  0  0  0
   32.7064   31.2151   38.5316 C   0  0  0  0  0  0  0  0  0  0  0  0
   32.8981   31.6294   39.9273 N   0  0  0  0  0  0  0  0  0  0  0  0
   32.9770   33.0337   40.2424 C   0  0  0  0  0  0  0  0  0  0  0  0
   33.3543   33.8487   39.3556 O   0  0  0  0  0  0  0  0  0  0  0  0
   32.6455   33.5415   41.6222 C   0  0  0  0  0  0  0  0  0  0  0  0
   31.9908   34.9210   41.5866 C   0  0  0  0  0  0  0  0  0  0  0  0
   33.2841   30.6070   40.9050 C   0  0  0  0  0  0  0  0  0  0  0  0
   32.2161   29.5195   40.9433 C   0  0  0  0  0  0  0  0  0  0  0  0
   31.8989   29.0180   39.5581 C   0  0  0  0  0  0  0  0  0  0  0  0
   31.3293   27.7458   39.4032 C   0  0  0  0  0  0  0  0  0  0  0  0
   30.9827   27.2739   38.1361 C   0  0  0  0  0  0  0  0  0  0  0  0
  1  2  1  0
  2  3  2  0
  2  4  1  0
  4  5  2  0
  5  6  1  0
  6  7  2  0
  7  8  1  0
  8  9  2  0
  9 10  1  0
 10 11  2  0
 11 12  1  0
 12 13  2  0
 13 14  1  0
  8 15  1  0
 15 16  2  0
 16 17  1  0
 17 18  1  0
 18 19  1  0
 19 20  1  0
 20 21  2  0
 20 22  1  0
 22 23  1  0
 19 24  1  0
 24 25  1  0
 25 26  1  0
 26 27  1  0
 27 28  2  0
 13  4  1  0
 28 15  1  0
 12  7  1  0
 26 17  2  0
M  END
>  <AAScore>  (1) 
35.32429164730066

>  <RootName>  (1) 
./4ZLY/04_DeltaGEst/trajectory_02/rank_01/lead_0285

$$$$
