confid_15
     RDKit          3D

 32 36  0  0  0  0  0  0  0  0999 V2000
   25.3300   26.2600   34.7600 N   0  0  0  0  0  0  0  0  0  0  0  0
   26.1200   25.9200   33.6900 C   0  0  0  0  0  0  0  0  0  0  0  0
   25.6300   25.1100   32.9400 O   0  0  0  0  0  0  0  0  0  0  0  0
   27.5200   26.3800   33.4600 C   0  0  0  0  0  0  0  0  0  0  0  0
   28.1600   26.6300   34.6100 N   0  0  0  0  0  0  0  0  0  0  0  0
   29.4800   26.8500   34.5700 N   0  0  0  0  0  0  0  0  0  0  0  0
   30.1900   26.7800   33.4400 C   0  0  0  0  0  0  0  0  0  0  0  0
   31.5600   27.0500   33.5000 C   0  0  0  0  0  0  0  0  0  0  0  0
   32.2700   27.2400   32.3100 C   0  0  0  0  0  0  0  0  0  0  0  0
   31.6100   27.2500   31.0800 C   0  0  0  0  0  0  0  0  0  0  0  0
   30.2700   26.8700   31.0600 C   0  0  0  0  0  0  0  0  0  0  0  0
   29.5100   26.6900   32.2300 C   0  0  0  0  0  0  0  0  0  0  0  0
   28.1400   26.4100   32.2000 C   0  0  0  0  0  0  0  0  0  0  0  0
   27.4300   26.1300   31.0500 N   0  0  0  0  0  0  0  0  0  0  0  0
   26.5204   27.1364   30.4938 C   0  0  0  0  0  0  0  0  0  0  0  0
   26.6280   27.1466   28.9672 C   0  0  0  0  0  0  0  0  0  0  0  0
   26.5195   25.7890   28.4057 N   0  0  0  0  0  0  0  0  0  0  0  0
   26.2394   25.6264   26.9980 C   0  0  0  0  0  0  0  0  0  0  0  0
   25.3320   24.6468   26.5551 C   0  0  0  0  0  0  0  0  0  0  0  0
   25.0550   24.4988   25.1932 C   0  0  0  0  0  0  0  0  0  0  0  0
   25.6666   25.3365   24.2494 C   0  0  0  0  0  0  0  0  0  0  0  0
   25.3790   25.1628   22.8115 C   0  0  0  0  0  0  0  0  0  0  0  0
   25.3433   23.9954   22.3358 O   0  0  0  0  0  0  0  0  0  0  0  0
   25.1279   26.2884   21.9498 N   0  0  0  0  0  0  0  0  0  0  0  0
   25.1640   26.1865   20.5003 C   0  0  0  0  0  0  0  0  0  0  0  0
   24.4668   27.4357   19.9772 C   0  0  0  0  0  0  0  0  0  0  0  0
   24.3850   28.3991   21.1575 C   0  0  0  0  0  0  0  0  0  0  0  0
   24.5616   27.5480   22.4074 C   0  0  0  0  0  0  0  0  0  0  0  0
   26.5885   26.2998   24.6842 C   0  0  0  0  0  0  0  0  0  0  0  0
   26.8659   26.4497   26.0457 C   0  0  0  0  0  0  0  0  0  0  0  0
   26.5430   24.6170   29.2953 C   0  0  0  0  0  0  0  0  0  0  0  0
   27.5656   24.8091   30.4205 C   0  0  0  0  0  0  0  0  0  0  0  0
  1  2  1  0
  2  3  2  0
  2  4  1  0
  4  5  2  0
  5  6  1  0
  6  7  2  0
  7  8  1  0
  8  9  2  0
  9 10  1  0
 10 11  2  0
 11 12  1  0
 12 13  2  0
 13 14  1  0
 14 15  1  0
 15 16  1  0
 16 17  1  0
 17 18  1  0
 18 19  2  0
 19 20  1  0
 20 21  2  0
 21 22  1  0
 22 23  2  0
 22 24  1  0
 24 25  1  0
 25 26  1  0
 26 27  1  0
 27 28  1  0
 21 29  1  0
 29 30  2  0
 17 31  1  0
 31 32  1  0
 13  4  1  0
 32 14  1  0
 12  7  1  0
 30 18  1  0
 28 24  1  0
M  END
>  <AAScore>  (1) 
4.913843077267199

>  <RootName>  (1) 
./4ZLY/04_DeltaGEst/trajectory_03/rank_01/lead_0486

$$$$
