confid_17
     RDKit          3D

 28 32  0  0  0  0  0  0  0  0999 V2000
   25.3300   26.2600   34.7600 N   0  0  0  0  0  0  0  0  0  0  0  0
   26.1200   25.9200   33.6900 C   0  0  0  0  0  0  0  0  0  0  0  0
   25.6300   25.1100   32.9400 O   0  0  0  0  0  0  0  0  0  0  0  0
   27.5200   26.3800   33.4600 C   0  0  0  0  0  0  0  0  0  0  0  0
   28.1600   26.6300   34.6100 N   0  0  0  0  0  0  0  0  0  0  0  0
   29.4800   26.8500   34.5700 N   0  0  0  0  0  0  0  0  0  0  0  0
   30.1900   26.7800   33.4400 C   0  0  0  0  0  0  0  0  0  0  0  0
   31.5600   27.0500   33.5000 C   0  0  0  0  0  0  0  0  0  0  0  0
   32.2700   27.2400   32.3100 C   0  0  0  0  0  0  0  0  0  0  0  0
   31.6100   27.2500   31.0800 C   0  0  0  0  0  0  0  0  0  0  0  0
   30.2700   26.8700   31.0600 C   0  0  0  0  0  0  0  0  0  0  0  0
   29.5100   26.6900   32.2300 C   0  0  0  0  0  0  0  0  0  0  0  0
   28.1400   26.4100   32.2000 C   0  0  0  0  0  0  0  0  0  0  0  0
   27.4300   26.1300   31.0500 N   0  0  0  0  0  0  0  0  0  0  0  0
   27.5668   24.8094   30.4201 C   0  0  0  0  0  0  0  0  0  0  0  0
   26.5497   24.6197   29.2894 C   0  0  0  0  0  0  0  0  0  0  0  0
   26.5314   25.7933   28.4018 N   0  0  0  0  0  0  0  0  0  0  0  0
   26.2691   25.6322   26.9906 C   0  0  0  0  0  0  0  0  0  0  0  0
   25.3726   24.6321   26.5323 C   0  0  0  0  0  0  0  0  0  0  0  0
   25.1125   24.4770   25.1612 C   0  0  0  0  0  0  0  0  0  0  0  0
   25.7537   25.3290   24.2675 C   0  0  0  0  0  0  0  0  0  0  0  0
   25.6282   25.3309   22.8959 O   0  0  0  0  0  0  0  0  0  0  0  0
   26.4460   26.3546   22.3290 C   0  0  0  0  0  0  0  0  0  0  0  0
   27.1465   27.0474   23.5241 C   0  0  0  0  0  0  0  0  0  0  0  0
   26.6146   26.2969   24.6912 C   0  0  0  0  0  0  0  0  0  0  0  0
   26.8949   26.4780   26.0454 C   0  0  0  0  0  0  0  0  0  0  0  0
   26.6335   27.1499   28.9670 C   0  0  0  0  0  0  0  0  0  0  0  0
   26.5204   27.1360   30.4932 C   0  0  0  0  0  0  0  0  0  0  0  0
  1  2  1  0
  2  3  2  0
  2  4  1  0
  4  5  2  0
  5  6  1  0
  6  7  2  0
  7  8  1  0
  8  9  2  0
  9 10  1  0
 10 11  2  0
 11 12  1  0
 12 13  2  0
 13 14  1  0
 14 15  1  0
 15 16  1  0
 16 17  1  0
 17 18  1  0
 18 19  2  0
 19 20  1  0
 20 21  2  0
 21 22  1  0
 22 23  1  0
 23 24  1  0
 24 25  1  0
 25 26  2  0
 17 27  1  0
 27 28  1  0
 13  4  1  0
 28 14  1  0
 12  7  1  0
 26 18  1  0
 25 21  1  0
M  END
>  <AAScore>  (1) 
3.016500618745218

>  <RootName>  (1) 
./4ZLY/04_DeltaGEst/trajectory_03/rank_01/lead_0080

$$$$
