confid_4
     RDKit          3D

 27 30  0  0  0  0  0  0  0  0999 V2000
   24.5500   26.3900   36.2500 N   0  0  0  0  0  0  0  0  0  0  0  0
   25.6000   26.1300   35.4000 C   0  0  0  0  0  0  0  0  0  0  0  0
   25.4300   25.4300   34.4200 O   0  0  0  0  0  0  0  0  0  0  0  0
   26.9800   26.6300   35.7100 C   0  0  0  0  0  0  0  0  0  0  0  0
   27.3200   26.8200   36.9800 N   0  0  0  0  0  0  0  0  0  0  0  0
   28.4700   27.4000   37.3100 N   0  0  0  0  0  0  0  0  0  0  0  0
   29.4000   27.6300   36.3700 C   0  0  0  0  0  0  0  0  0  0  0  0
   30.6600   28.0500   36.8000 C   0  0  0  0  0  0  0  0  0  0  0  0
   31.5700   28.3600   35.7800 C   0  0  0  0  0  0  0  0  0  0  0  0
   31.3700   28.1000   34.4300 C   0  0  0  0  0  0  0  0  0  0  0  0
   30.1200   27.5900   34.0500 C   0  0  0  0  0  0  0  0  0  0  0  0
   29.1500   27.3400   35.0300 C   0  0  0  0  0  0  0  0  0  0  0  0
   27.8800   26.8900   34.6600 C   0  0  0  0  0  0  0  0  0  0  0  0
   27.4800   26.6100   33.3700 N   0  0  0  0  0  0  0  0  0  0  0  0
   23.2846   25.7197   36.1683 C   0  0  0  0  0  0  0  0  0  0  0  0
   22.1178   26.3972   36.1283 N   0  0  0  0  0  0  0  0  0  0  0  0
   21.1905   25.4207   36.0879 C   0  0  0  0  0  0  0  0  0  0  0  0
   19.8125   25.6443   36.0442 O   0  0  0  0  0  0  0  0  0  0  0  0
   19.2563   26.9525   36.0296 C   0  0  0  0  0  0  0  0  0  0  0  0
   21.7928   24.1823   36.1078 C   0  0  0  0  0  0  0  0  0  0  0  0
   21.0649   22.8607   36.1632 C   0  0  0  0  0  0  0  0  0  0  0  0
   21.7436   21.7893   35.4099 N   0  0  0  0  0  0  0  0  0  0  0  0
   22.9080   21.1641   36.0811 C   0  0  0  0  0  0  0  0  0  0  0  0
   23.7171   22.0920   37.0083 C   0  0  0  0  0  0  0  0  0  0  0  0
   24.1944   23.3672   36.3123 C   0  0  0  0  0  0  0  0  0  0  0  0
   23.1284   24.3717   36.1950 N   0  0  0  0  0  0  0  0  0  0  0  0
   21.9746   22.1178   33.9929 C   0  0  0  0  0  0  0  0  0  0  0  0
  1  2  1  0
  2  3  2  0
  2  4  1  0
  4  5  2  0
  5  6  1  0
  6  7  2  0
  7  8  1  0
  8  9  2  0
  9 10  1  0
 10 11  2  0
 11 12  1  0
 12 13  2  0
 13 14  1  0
  1 15  1  0
 15 16  2  0
 16 17  1  0
 17 18  1  0
 18 19  1  0
 17 20  2  0
 20 21  1  0
 21 22  1  0
 22 23  1  0
 23 24  1  0
 24 25  1  0
 25 26  1  0
 22 27  1  0
 13  4  1  0
 26 15  1  0
 12  7  1  0
 26 20  1  0
M  END
>  <AAScore>  (1) 
27214.73927346861

>  <RootName>  (1) 
./4ZLY/04_DeltaGEst/trajectory_01/rank_00/lead_0170

$$$$
