confid_13
     RDKit          3D

 28 31  0  0  0  0  0  0  0  0999 V2000
   24.6900   26.1200   35.5300 N   0  0  0  0  0  0  0  0  0  0  0  0
   25.6600   25.6700   34.6600 C   0  0  0  0  0  0  0  0  0  0  0  0
   25.2400   25.0100   33.7200 O   0  0  0  0  0  0  0  0  0  0  0  0
   27.0300   26.2200   34.8800 C   0  0  0  0  0  0  0  0  0  0  0  0
   27.3500   26.7300   36.0700 N   0  0  0  0  0  0  0  0  0  0  0  0
   28.5700   27.1800   36.3300 N   0  0  0  0  0  0  0  0  0  0  0  0
   29.5300   27.1100   35.3900 C   0  0  0  0  0  0  0  0  0  0  0  0
   30.8300   27.5700   35.6500 C   0  0  0  0  0  0  0  0  0  0  0  0
   31.8500   27.5400   34.6900 C   0  0  0  0  0  0  0  0  0  0  0  0
   31.5100   27.1200   33.4000 C   0  0  0  0  0  0  0  0  0  0  0  0
   30.2200   26.6300   33.1100 C   0  0  0  0  0  0  0  0  0  0  0  0
   29.2400   26.6600   34.1000 C   0  0  0  0  0  0  0  0  0  0  0  0
   27.9300   26.2600   33.8100 C   0  0  0  0  0  0  0  0  0  0  0  0
   27.5200   25.7100   32.6100 N   0  0  0  0  0  0  0  0  0  0  0  0
   31.1836   28.0724   37.0003 C   0  0  0  0  0  0  0  0  0  0  0  0
   31.7543   29.3707   37.1351 C   0  0  0  0  0  0  0  0  0  0  0  0
   32.0632   29.7554   38.4228 C   0  0  0  0  0  0  0  0  0  0  0  0
   32.5842   30.7359   39.3259 C   0  0  0  0  0  0  0  0  0  0  0  0
   32.3792   29.9311   40.4735 N   0  0  0  0  0  0  0  0  0  0  0  0
   32.6095   30.0354   41.9065 C   0  0  0  0  0  0  0  0  0  0  0  0
   33.5441   28.9204   42.3912 C   0  0  0  0  0  0  0  0  0  0  0  0
   34.9149   28.9330   41.6919 C   0  0  0  0  0  0  0  0  0  0  0  0
   35.5679   30.2581   41.7814 N   0  0  0  0  0  0  0  0  0  0  0  0
   36.5966   30.3848   40.7365 C   0  0  0  0  0  0  0  0  0  0  0  0
   36.1869   30.4570   43.1037 C   0  0  0  0  0  0  0  0  0  0  0  0
   31.8441   28.9390   39.5414 C   0  0  0  0  0  0  0  0  0  0  0  0
   31.3028   27.6737   39.4624 C   0  0  0  0  0  0  0  0  0  0  0  0
   30.9709   27.2394   38.1553 C   0  0  0  0  0  0  0  0  0  0  0  0
  1  2  1  0
  2  3  2  0
  2  4  1  0
  4  5  2  0
  5  6  1  0
  6  7  2  0
  7  8  1  0
  8  9  2  0
  9 10  1  0
 10 11  2  0
 11 12  1  0
 12 13  2  0
 13 14  1  0
  8 15  1  0
 15 16  2  0
 16 17  1  0
 17 18  1  0
 18 19  1  0
 19 20  1  0
 20 21  1  0
 21 22  1  0
 22 23  1  0
 23 24  1  0
 23 25  1  0
 19 26  1  0
 26 27  1  0
 27 28  2  0
 13  4  1  0
 28 15  1  0
 12  7  1  0
 26 17  2  0
M  END
>  <AAScore>  (1) 
433.2794990492847

>  <RootName>  (1) 
./4ZLY/04_DeltaGEst/trajectory_02/rank_01/lead_0117

$$$$
