confid_9
     RDKit          3D

 30 33  0  0  0  0  0  0  0  0999 V2000
   24.5500   26.3900   36.2500 N   0  0  0  0  0  0  0  0  0  0  0  0
   25.6000   26.1300   35.4000 C   0  0  0  0  0  0  0  0  0  0  0  0
   25.4300   25.4300   34.4200 O   0  0  0  0  0  0  0  0  0  0  0  0
   26.9800   26.6300   35.7100 C   0  0  0  0  0  0  0  0  0  0  0  0
   27.3200   26.8200   36.9800 N   0  0  0  0  0  0  0  0  0  0  0  0
   28.4700   27.4000   37.3100 N   0  0  0  0  0  0  0  0  0  0  0  0
   29.4000   27.6300   36.3700 C   0  0  0  0  0  0  0  0  0  0  0  0
   30.6600   28.0500   36.8000 C   0  0  0  0  0  0  0  0  0  0  0  0
   31.5700   28.3600   35.7800 C   0  0  0  0  0  0  0  0  0  0  0  0
   31.3700   28.1000   34.4300 C   0  0  0  0  0  0  0  0  0  0  0  0
   30.1200   27.5900   34.0500 C   0  0  0  0  0  0  0  0  0  0  0  0
   29.1500   27.3400   35.0300 C   0  0  0  0  0  0  0  0  0  0  0  0
   27.8800   26.8900   34.6600 C   0  0  0  0  0  0  0  0  0  0  0  0
   27.4800   26.6100   33.3700 N   0  0  0  0  0  0  0  0  0  0  0  0
   30.9603   28.3233   38.1776 N   0  0  0  0  0  0  0  0  0  0  0  0
   32.0124   27.5491   38.8484 C   0  0  0  0  0  0  0  0  0  0  0  0
   32.0930   27.8996   40.3368 C   0  0  0  0  0  0  0  0  0  0  0  0
   30.7360   27.9910   40.8955 N   0  0  0  0  0  0  0  0  0  0  0  0
   30.3346   27.1693   42.0099 C   0  0  0  0  0  0  0  0  0  0  0  0
   30.6727   25.8078   42.0534 C   0  0  0  0  0  0  0  0  0  0  0  0
   30.2523   25.0076   43.1177 C   0  0  0  0  0  0  0  0  0  0  0  0
   29.4842   25.5488   44.1607 C   0  0  0  0  0  0  0  0  0  0  0  0
   29.0393   24.7053   45.2435 N   0  0  0  0  0  0  0  0  0  0  0  0
   29.0875   25.1698   46.6312 C   0  0  0  0  0  0  0  0  0  0  0  0
   28.4081   23.4180   44.9447 C   0  0  0  0  0  0  0  0  0  0  0  0
   29.1300   26.9100   44.1099 C   0  0  0  0  0  0  0  0  0  0  0  0
   28.3495   27.4627   45.0708 F   0  0  0  0  0  0  0  0  0  0  0  0
   29.5534   27.7080   43.0450 C   0  0  0  0  0  0  0  0  0  0  0  0
   29.7442   28.8651   40.2468 C   0  0  0  0  0  0  0  0  0  0  0  0
   30.2498   29.3897   38.8962 C   0  0  0  0  0  0  0  0  0  0  0  0
  1  2  1  0
  2  3  2  0
  2  4  1  0
  4  5  2  0
  5  6  1  0
  6  7  2  0
  7  8  1  0
  8  9  2  0
  9 10  1  0
 10 11  2  0
 11 12  1  0
 12 13  2  0
 13 14  1  0
  8 15  1  0
 15 16  1  0
 16 17  1  0
 17 18  1  0
 18 19  1  0
 19 20  2  0
 20 21  1  0
 21 22  2  0
 22 23  1  0
 23 24  1  0
 23 25  1  0
 22 26  1  0
 26 27  1  0
 26 28  2  0
 18 29  1  0
 29 30  1  0
 13  4  1  0
 30 15  1  0
 12  7  1  0
 28 19  1  0
M  END
>  <AAScore>  (1) 
134.5009491311956

>  <RootName>  (1) 
./4ZLY/04_DeltaGEst/trajectory_01/rank_01/lead_0078

$$$$
