confid_12
     RDKit          3D

 30 34  0  0  0  0  0  0  0  0999 V2000
   24.6900   26.1200   35.5300 N   0  0  0  0  0  0  0  0  0  0  0  0
   25.6600   25.6700   34.6600 C   0  0  0  0  0  0  0  0  0  0  0  0
   25.2400   25.0100   33.7200 O   0  0  0  0  0  0  0  0  0  0  0  0
   27.0300   26.2200   34.8800 C   0  0  0  0  0  0  0  0  0  0  0  0
   27.3500   26.7300   36.0700 N   0  0  0  0  0  0  0  0  0  0  0  0
   28.5700   27.1800   36.3300 N   0  0  0  0  0  0  0  0  0  0  0  0
   29.5300   27.1100   35.3900 C   0  0  0  0  0  0  0  0  0  0  0  0
   30.8300   27.5700   35.6500 C   0  0  0  0  0  0  0  0  0  0  0  0
   31.8500   27.5400   34.6900 C   0  0  0  0  0  0  0  0  0  0  0  0
   31.5100   27.1200   33.4000 C   0  0  0  0  0  0  0  0  0  0  0  0
   30.2200   26.6300   33.1100 C   0  0  0  0  0  0  0  0  0  0  0  0
   29.2400   26.6600   34.1000 C   0  0  0  0  0  0  0  0  0  0  0  0
   27.9300   26.2600   33.8100 C   0  0  0  0  0  0  0  0  0  0  0  0
   27.5200   25.7100   32.6100 N   0  0  0  0  0  0  0  0  0  0  0  0
   31.1413   28.0709   36.9557 N   0  0  0  0  0  0  0  0  0  0  0  0
   31.6320   27.1422   37.9812 C   0  0  0  0  0  0  0  0  0  0  0  0
   31.7357   27.8292   39.3472 C   0  0  0  0  0  0  0  0  0  0  0  0
   30.5519   28.6686   39.5748 N   0  0  0  0  0  0  0  0  0  0  0  0
   29.9050   28.6817   40.8558 C   0  0  0  0  0  0  0  0  0  0  0  0
   29.8084   29.7708   41.4815 O   0  0  0  0  0  0  0  0  0  0  0  0
   29.3206   27.4449   41.4213 C   0  0  0  0  0  0  0  0  0  0  0  0
   28.8090   27.2494   42.7119 C   0  0  0  0  0  0  0  0  0  0  0  0
   28.8065   28.3001   43.7919 C   0  0  0  0  0  0  0  0  0  0  0  0
   27.5659   28.3491   44.6779 C   0  0  0  0  0  0  0  0  0  0  0  0
   27.7646   29.3949   43.5982 C   0  0  0  0  0  0  0  0  0  0  0  0
   28.3698   25.9314   42.9350 C   0  0  0  0  0  0  0  0  0  0  0  0
   28.4808   25.1045   41.8271 C   0  0  0  0  0  0  0  0  0  0  0  0
   29.1512   25.9981   40.5755 S   0  0  0  0  0  0  0  0  0  0  0  0
   30.1121   29.6259   38.5501 C   0  0  0  0  0  0  0  0  0  0  0  0
   30.9323   29.4889   37.2624 C   0  0  0  0  0  0  0  0  0  0  0  0
  1  2  1  0
  2  3  2  0
  2  4  1  0
  4  5  2  0
  5  6  1  0
  6  7  2  0
  7  8  1  0
  8  9  2  0
  9 10  1  0
 10 11  2  0
 11 12  1  0
 12 13  2  0
 13 14  1  0
  8 15  1  0
 15 16  1  0
 16 17  1  0
 17 18  1  0
 18 19  1  0
 19 20  2  0
 19 21  1  0
 21 22  2  0
 22 23  1  0
 23 24  1  0
 24 25  1  0
 22 26  1  0
 26 27  2  0
 27 28  1  0
 18 29  1  0
 29 30  1  0
 13  4  1  0
 30 15  1  0
 12  7  1  0
 28 21  1  0
 25 23  1  0
M  END
>  <AAScore>  (1) 
87.64836833859617

>  <RootName>  (1) 
./4ZLY/04_DeltaGEst/trajectory_02/rank_01/lead_0121

$$$$
