confid_19
     RDKit          3D

 28 31  0  0  0  0  0  0  0  0999 V2000
   24.2000   26.2400   35.6900 N   0  0  0  0  0  0  0  0  0  0  0  0
   24.8500   26.2800   34.4800 C   0  0  0  0  0  0  0  0  0  0  0  0
   24.3100   25.7400   33.5400 O   0  0  0  0  0  0  0  0  0  0  0  0
   26.1800   26.9700   34.4700 C   0  0  0  0  0  0  0  0  0  0  0  0
   26.6500   27.6000   35.5500 N   0  0  0  0  0  0  0  0  0  0  0  0
   27.7900   28.2700   35.6200 N   0  0  0  0  0  0  0  0  0  0  0  0
   28.5400   28.3000   34.5100 C   0  0  0  0  0  0  0  0  0  0  0  0
   29.7700   28.9400   34.5600 C   0  0  0  0  0  0  0  0  0  0  0  0
   30.7000   28.8900   33.5000 C   0  0  0  0  0  0  0  0  0  0  0  0
   30.3700   28.1400   32.3700 C   0  0  0  0  0  0  0  0  0  0  0  0
   29.1200   27.5200   32.2800 C   0  0  0  0  0  0  0  0  0  0  0  0
   28.2100   27.6100   33.3300 C   0  0  0  0  0  0  0  0  0  0  0  0
   26.9700   26.9700   33.3100 C   0  0  0  0  0  0  0  0  0  0  0  0
   26.5300   26.2400   32.2200 N   0  0  0  0  0  0  0  0  0  0  0  0
   30.1286   29.7025   35.7259 N   0  0  0  0  0  0  0  0  0  0  0  0
   31.2634   29.2827   36.5574 C   0  0  0  0  0  0  0  0  0  0  0  0
   32.2412   30.4496   36.7282 C   0  0  0  0  0  0  0  0  0  0  0  0
   31.5317   31.6985   37.0409 N   0  0  0  0  0  0  0  0  0  0  0  0
   32.2847   32.9109   37.2009 C   0  0  0  0  0  0  0  0  0  0  0  0
   32.8925   33.4906   36.0768 C   0  0  0  0  0  0  0  0  0  0  0  0
   33.6079   34.6914   36.1909 C   0  0  0  0  0  0  0  0  0  0  0  0
   34.2764   35.2975   34.9917 C   0  0  0  0  0  0  0  0  0  0  0  0
   33.7329   35.3020   37.4457 C   0  0  0  0  0  0  0  0  0  0  0  0
   33.1335   34.7312   38.5714 C   0  0  0  0  0  0  0  0  0  0  0  0
   32.4194   33.5262   38.4658 C   0  0  0  0  0  0  0  0  0  0  0  0
   31.7824   32.9363   39.6945 C   0  0  0  0  0  0  0  0  0  0  0  0
   30.0705   31.7178   37.1735 C   0  0  0  0  0  0  0  0  0  0  0  0
   29.4332   30.9709   35.9972 C   0  0  0  0  0  0  0  0  0  0  0  0
  1  2  1  0
  2  3  2  0
  2  4  1  0
  4  5  2  0
  5  6  1  0
  6  7  2  0
  7  8  1  0
  8  9  2  0
  9 10  1  0
 10 11  2  0
 11 12  1  0
 12 13  2  0
 13 14  1  0
  8 15  1  0
 15 16  1  0
 16 17  1  0
 17 18  1  0
 18 19  1  0
 19 20  2  0
 20 21  1  0
 21 22  1  0
 21 23  2  0
 23 24  1  0
 24 25  2  0
 25 26  1  0
 18 27  1  0
 27 28  1  0
 13  4  1  0
 28 15  1  0
 12  7  1  0
 25 19  1  0
M  END
>  <AAScore>  (1) 
-8.21465152390802

>  <RootName>  (1) 
./4ZLY/04_DeltaGEst/trajectory_04/rank_01/lead_0033

$$$$
