confid_15
     RDKit          3D

 27 30  0  0  0  0  0  0  0  0999 V2000
   24.4800   26.1000   36.1300 N   0  0  0  0  0  0  0  0  0  0  0  0
   25.2500   26.2500   34.9900 C   0  0  0  0  0  0  0  0  0  0  0  0
   24.7400   25.7600   33.9900 O   0  0  0  0  0  0  0  0  0  0  0  0
   26.5900   26.8900   34.9600 C   0  0  0  0  0  0  0  0  0  0  0  0
   27.0600   27.2400   36.1600 N   0  0  0  0  0  0  0  0  0  0  0  0
   28.3000   27.7100   36.2400 N   0  0  0  0  0  0  0  0  0  0  0  0
   29.0500   27.9600   35.1500 C   0  0  0  0  0  0  0  0  0  0  0  0
   30.3400   28.4900   35.2600 C   0  0  0  0  0  0  0  0  0  0  0  0
   31.1100   28.8200   34.1400 C   0  0  0  0  0  0  0  0  0  0  0  0
   30.5200   28.6700   32.8800 C   0  0  0  0  0  0  0  0  0  0  0  0
   29.2900   28.0200   32.7700 C   0  0  0  0  0  0  0  0  0  0  0  0
   28.5200   27.7100   33.8900 C   0  0  0  0  0  0  0  0  0  0  0  0
   27.2700   27.0800   33.7600 C   0  0  0  0  0  0  0  0  0  0  0  0
   26.7500   26.8800   32.4900 N   0  0  0  0  0  0  0  0  0  0  0  0
   23.5010   25.0635   36.3424 C   0  0  0  0  0  0  0  0  0  0  0  0
   23.4346   23.9875   35.5122 N   0  0  0  0  0  0  0  0  0  0  0  0
   22.5437   22.9746   35.6966 C   0  0  0  0  0  0  0  0  0  0  0  0
   22.5056   21.8984   34.8025 O   0  0  0  0  0  0  0  0  0  0  0  0
   23.3699   21.8015   33.6766 C   0  0  0  0  0  0  0  0  0  0  0  0
   21.6584   23.0121   36.7879 C   0  0  0  0  0  0  0  0  0  0  0  0
   20.6357   21.9180   36.9668 C   0  0  0  0  0  0  0  0  0  0  0  0
   19.9567   21.9667   38.3440 C   0  0  0  0  0  0  0  0  0  0  0  0
   19.5947   23.3389   38.7477 N   0  0  0  0  0  0  0  0  0  0  0  0
   18.5684   23.9350   37.8747 C   0  0  0  0  0  0  0  0  0  0  0  0
   20.7894   24.1976   38.8635 C   0  0  0  0  0  0  0  0  0  0  0  0
   21.6888   24.1256   37.6505 C   0  0  0  0  0  0  0  0  0  0  0  0
   22.6310   25.1396   37.4354 C   0  0  0  0  0  0  0  0  0  0  0  0
  1  2  1  0
  2  3  2  0
  2  4  1  0
  4  5  2  0
  5  6  1  0
  6  7  2  0
  7  8  1  0
  8  9  2  0
  9 10  1  0
 10 11  2  0
 11 12  1  0
 12 13  2  0
 13 14  1  0
  1 15  1  0
 15 16  2  0
 16 17  1  0
 17 18  1  0
 18 19  1  0
 17 20  2  0
 20 21  1  0
 21 22  1  0
 22 23  1  0
 23 24  1  0
 23 25  1  0
 25 26  1  0
 26 27  2  0
 13  4  1  0
 27 15  1  0
 12  7  1  0
 26 20  1  0
M  END
>  <AAScore>  (1) 
982.9242210520308

>  <RootName>  (1) 
./4ZLY/04_DeltaGEst/trajectory_00/rank_00/lead_0201

$$$$
