confid_9
     RDKit          3D

 30 34  0  0  0  0  0  0  0  0999 V2000
   25.3300   26.2600   34.7600 N   0  0  0  0  0  0  0  0  0  0  0  0
   26.1200   25.9200   33.6900 C   0  0  0  0  0  0  0  0  0  0  0  0
   25.6300   25.1100   32.9400 O   0  0  0  0  0  0  0  0  0  0  0  0
   27.5200   26.3800   33.4600 C   0  0  0  0  0  0  0  0  0  0  0  0
   28.1600   26.6300   34.6100 N   0  0  0  0  0  0  0  0  0  0  0  0
   29.4800   26.8500   34.5700 N   0  0  0  0  0  0  0  0  0  0  0  0
   30.1900   26.7800   33.4400 C   0  0  0  0  0  0  0  0  0  0  0  0
   31.5600   27.0500   33.5000 C   0  0  0  0  0  0  0  0  0  0  0  0
   32.2700   27.2400   32.3100 C   0  0  0  0  0  0  0  0  0  0  0  0
   31.6100   27.2500   31.0800 C   0  0  0  0  0  0  0  0  0  0  0  0
   30.2700   26.8700   31.0600 C   0  0  0  0  0  0  0  0  0  0  0  0
   29.5100   26.6900   32.2300 C   0  0  0  0  0  0  0  0  0  0  0  0
   28.1400   26.4100   32.2000 C   0  0  0  0  0  0  0  0  0  0  0  0
   27.4300   26.1300   31.0500 N   0  0  0  0  0  0  0  0  0  0  0  0
   24.1304   25.5828   35.1917 C   0  0  0  0  0  0  0  0  0  0  0  0
   23.9305   24.3501   34.8043 N   0  0  0  0  0  0  0  0  0  0  0  0
   22.9522   23.3276   35.0642 C   0  0  0  0  0  0  0  0  0  0  0  0
   22.2253   23.2296   36.1723 C   0  0  0  0  0  0  0  0  0  0  0  0
   21.6355   22.0984   36.9672 C   0  0  0  0  0  0  0  0  0  0  0  0
   21.3381   22.8706   38.0852 O   0  0  0  0  0  0  0  0  0  0  0  0
   21.7538   23.9886   37.3723 C   0  0  1  0  0  0  0  0  0  0  0  0
   22.8830   24.7687   38.0390 C   0  0  0  0  0  0  0  0  0  0  0  0
   22.9019   26.1086   37.3811 C   0  0  0  0  0  0  0  0  0  0  0  0
   22.1922   27.2000   37.8466 C   0  0  0  0  0  0  0  0  0  0  0  0
   22.1243   28.0972   36.8027 C   0  0  0  0  0  0  0  0  0  0  0  0
   22.7535   27.5989   35.7140 N   0  0  0  0  0  0  0  0  0  0  0  0
   22.7552   28.1968   34.3715 C   0  0  0  0  0  0  0  0  0  0  0  0
   21.6283   27.6087   33.5307 C   0  0  0  0  0  0  0  0  0  0  0  0
   23.2048   26.3631   36.0483 C   0  0  0  0  0  0  0  0  0  0  0  0
   21.3818   29.3983   36.8468 C   0  0  0  0  0  0  0  0  0  0  0  0
  1  2  1  0
  2  3  2  0
  2  4  1  0
  4  5  2  0
  5  6  1  0
  6  7  2  0
  7  8  1  0
  8  9  2  0
  9 10  1  0
 10 11  2  0
 11 12  1  0
 12 13  2  0
 13 14  1  0
  1 15  1  0
 15 16  2  0
 16 17  1  0
 17 18  2  0
 18 19  1  0
 19 20  1  0
 20 21  1  0
 21 22  1  1
 22 23  1  0
 23 24  1  0
 24 25  2  0
 25 26  1  0
 26 27  1  0
 27 28  1  0
 26 29  1  0
 25 30  1  0
 13  4  1  0
 29 15  1  0
 12  7  1  0
 21 18  1  0
 29 23  2  0
M  END
>  <AAScore>  (1) 
6898.620174400326

>  <RootName>  (1) 
./4ZLY/04_DeltaGEst/trajectory_03/rank_00/lead_0440

$$$$
