confid_2
     RDKit          3D

 27 30  0  0  0  0  0  0  0  0999 V2000
   25.3300   26.2600   34.7600 N   0  0  0  0  0  0  0  0  0  0  0  0
   26.1200   25.9200   33.6900 C   0  0  0  0  0  0  0  0  0  0  0  0
   25.6300   25.1100   32.9400 O   0  0  0  0  0  0  0  0  0  0  0  0
   27.5200   26.3800   33.4600 C   0  0  0  0  0  0  0  0  0  0  0  0
   28.1600   26.6300   34.6100 N   0  0  0  0  0  0  0  0  0  0  0  0
   29.4800   26.8500   34.5700 N   0  0  0  0  0  0  0  0  0  0  0  0
   30.1900   26.7800   33.4400 C   0  0  0  0  0  0  0  0  0  0  0  0
   31.5600   27.0500   33.5000 C   0  0  0  0  0  0  0  0  0  0  0  0
   32.2700   27.2400   32.3100 C   0  0  0  0  0  0  0  0  0  0  0  0
   31.6100   27.2500   31.0800 C   0  0  0  0  0  0  0  0  0  0  0  0
   30.2700   26.8700   31.0600 C   0  0  0  0  0  0  0  0  0  0  0  0
   29.5100   26.6900   32.2300 C   0  0  0  0  0  0  0  0  0  0  0  0
   28.1400   26.4100   32.2000 C   0  0  0  0  0  0  0  0  0  0  0  0
   27.4300   26.1300   31.0500 N   0  0  0  0  0  0  0  0  0  0  0  0
   27.5946   24.8056   30.4196 C   0  0  0  0  0  0  0  0  0  0  0  0
   26.7997   24.6833   29.1133 C   0  0  0  0  0  0  0  0  0  0  0  0
   26.9553   25.9044   28.3183 N   0  0  0  0  0  0  0  0  0  0  0  0
   26.7052   27.1553   28.9769 C   0  0  0  0  0  0  0  0  0  0  0  0
   26.5840   28.2226   28.3165 O   0  0  0  0  0  0  0  0  0  0  0  0
   26.5704   27.1716   30.4670 C   0  0  0  0  0  0  0  0  0  0  0  0
   27.5402   25.8620   26.9747 C   0  0  0  0  0  0  0  0  0  0  0  0
   29.0184   26.1322   27.0556 C   0  0  0  0  0  0  0  0  0  0  0  0
   29.5155   27.4305   26.8560 C   0  0  0  0  0  0  0  0  0  0  0  0
   30.8849   27.6875   26.9819 C   0  0  0  0  0  0  0  0  0  0  0  0
   31.7625   26.6560   27.3254 C   0  0  0  0  0  0  0  0  0  0  0  0
   31.2741   25.3646   27.5395 C   0  0  0  0  0  0  0  0  0  0  0  0
   29.9067   25.1021   27.4078 C   0  0  0  0  0  0  0  0  0  0  0  0
  1  2  1  0
  2  3  2  0
  2  4  1  0
  4  5  2  0
  5  6  1  0
  6  7  2  0
  7  8  1  0
  8  9  2  0
  9 10  1  0
 10 11  2  0
 11 12  1  0
 12 13  2  0
 13 14  1  0
 14 15  1  0
 15 16  1  0
 16 17  1  0
 17 18  1  0
 18 19  2  0
 18 20  1  0
 17 21  1  0
 21 22  1  0
 22 23  2  0
 23 24  1  0
 24 25  2  0
 25 26  1  0
 26 27  2  0
 13  4  1  0
 20 14  1  0
 27 22  1  0
 12  7  1  0
M  END
>  <AAScore>  (1) 
9.10231870855375

>  <RootName>  (1) 
./4ZLY/04_DeltaGEst/trajectory_03/rank_01/lead_0143

$$$$
