confid_15
     RDKit          3D

 30 34  0  0  0  0  0  0  0  0999 V2000
   24.5500   26.3900   36.2500 N   0  0  0  0  0  0  0  0  0  0  0  0
   25.6000   26.1300   35.4000 C   0  0  0  0  0  0  0  0  0  0  0  0
   25.4300   25.4300   34.4200 O   0  0  0  0  0  0  0  0  0  0  0  0
   26.9800   26.6300   35.7100 C   0  0  0  0  0  0  0  0  0  0  0  0
   27.3200   26.8200   36.9800 N   0  0  0  0  0  0  0  0  0  0  0  0
   28.4700   27.4000   37.3100 N   0  0  0  0  0  0  0  0  0  0  0  0
   29.4000   27.6300   36.3700 C   0  0  0  0  0  0  0  0  0  0  0  0
   30.6600   28.0500   36.8000 C   0  0  0  0  0  0  0  0  0  0  0  0
   31.5700   28.3600   35.7800 C   0  0  0  0  0  0  0  0  0  0  0  0
   31.3700   28.1000   34.4300 C   0  0  0  0  0  0  0  0  0  0  0  0
   30.1200   27.5900   34.0500 C   0  0  0  0  0  0  0  0  0  0  0  0
   29.1500   27.3400   35.0300 C   0  0  0  0  0  0  0  0  0  0  0  0
   27.8800   26.8900   34.6600 C   0  0  0  0  0  0  0  0  0  0  0  0
   27.4800   26.6100   33.3700 N   0  0  0  0  0  0  0  0  0  0  0  0
   23.1658   25.9980   35.9603 C   0  0  1  0  0  0  0  0  0  0  0  0
   22.3825   25.8278   37.2740 C   0  0  0  0  0  0  0  0  0  0  0  0
   20.8965   25.6125   36.9830 C   0  0  0  0  0  0  0  0  0  0  0  0
   20.3784   26.7031   36.1470 N   0  0  0  0  0  0  0  0  0  0  0  0
   18.9482   27.0149   36.1700 C   0  0  0  0  0  0  0  0  0  0  0  0
   18.1997   26.0522   35.2953 C   0  0  0  0  0  0  0  0  0  0  0  0
   18.2728   26.0929   33.9470 N   0  0  0  0  0  0  0  0  0  0  0  0
   17.5281   25.0404   33.5486 C   0  0  0  0  0  0  0  0  0  0  0  0
   17.0046   24.3895   34.6443 C   0  0  0  0  0  0  0  0  0  0  0  0
   17.4400   25.0264   35.7444 N   0  0  0  0  0  0  0  0  0  0  0  0
   17.1533   24.6572   37.1272 C   0  0  0  0  0  0  0  0  0  0  0  0
   17.2637   24.7002   32.1144 C   0  0  0  0  0  0  0  0  0  0  0  0
   18.5136   24.4137   31.2943 C   0  0  0  0  0  0  0  0  0  0  0  0
   17.6097   23.2702   31.7237 C   0  0  0  0  0  0  0  0  0  0  0  0
   21.2166   27.3106   35.1451 C   0  0  0  0  0  0  0  0  0  0  0  0
   22.5212   27.0318   35.0710 C   0  0  0  0  0  0  0  0  0  0  0  0
  1  2  1  0
  2  3  2  0
  2  4  1  0
  4  5  2  0
  5  6  1  0
  6  7  2  0
  7  8  1  0
  8  9  2  0
  9 10  1  0
 10 11  2  0
 11 12  1  0
 12 13  2  0
 13 14  1  0
 15  1  1  1
 15 16  1  0
 16 17  1  0
 17 18  1  0
 18 19  1  0
 19 20  1  0
 20 21  2  0
 21 22  1  0
 22 23  2  0
 23 24  1  0
 24 25  1  0
 22 26  1  0
 26 27  1  0
 27 28  1  0
 18 29  1  0
 29 30  2  0
 13  4  1  0
 30 15  1  0
 12  7  1  0
 24 20  1  0
 28 26  1  0
M  END
>  <AAScore>  (1) 
1785.602034735693

>  <RootName>  (1) 
./4ZLY/04_DeltaGEst/trajectory_01/rank_00/lead_0474

$$$$
