confid_4
     RDKit          3D

 27 30  0  0  0  0  0  0  0  0999 V2000
   24.5700   26.8800   35.5900 N   0  0  0  0  0  0  0  0  0  0  0  0
   25.5000   26.4000   34.6900 C   0  0  0  0  0  0  0  0  0  0  0  0
   25.1700   25.5200   33.9100 O   0  0  0  0  0  0  0  0  0  0  0  0
   26.8400   27.0200   34.7400 C   0  0  0  0  0  0  0  0  0  0  0  0
   27.3800   27.2800   35.9400 N   0  0  0  0  0  0  0  0  0  0  0  0
   28.6200   27.7400   36.0300 N   0  0  0  0  0  0  0  0  0  0  0  0
   29.3800   28.0000   34.9600 C   0  0  0  0  0  0  0  0  0  0  0  0
   30.6700   28.5000   35.1300 C   0  0  0  0  0  0  0  0  0  0  0  0
   31.5400   28.6100   34.0300 C   0  0  0  0  0  0  0  0  0  0  0  0
   31.0900   28.2200   32.7700 C   0  0  0  0  0  0  0  0  0  0  0  0
   29.8000   27.7000   32.6000 C   0  0  0  0  0  0  0  0  0  0  0  0
   28.9600   27.5500   33.7100 C   0  0  0  0  0  0  0  0  0  0  0  0
   27.6600   27.0300   33.5900 C   0  0  0  0  0  0  0  0  0  0  0  0
   27.1600   26.7400   32.3400 N   0  0  0  0  0  0  0  0  0  0  0  0
   23.3029   26.2628   35.8773 C   0  0  0  0  0  0  0  0  0  0  0  0
   22.9787   25.0478   35.3627 N   0  0  0  0  0  0  0  0  0  0  0  0
   21.7879   24.4623   35.6414 C   0  0  0  0  0  0  0  0  0  0  0  0
   20.8587   25.1063   36.4693 C   0  0  0  0  0  0  0  0  0  0  0  0
   19.5828   24.3886   36.8470 C   0  0  0  0  0  0  0  0  0  0  0  0
   19.6283   23.6881   38.1689 N   0  0  0  0  0  0  0  0  0  0  0  0
   20.7432   24.0712   39.0789 C   0  0  0  0  0  0  0  0  0  0  0  0
   20.5183   25.4125   39.8166 C   0  0  0  0  0  0  0  0  0  0  0  0
   19.6442   26.4555   39.1019 C   0  0  0  0  0  0  0  0  0  0  0  0
   20.2983   27.1749   37.9012 C   0  0  0  0  0  0  0  0  0  0  0  0
   21.2190   26.3553   37.0232 C   0  0  0  0  0  0  0  0  0  0  0  0
   22.4246   26.8960   36.6973 N   0  0  0  0  0  0  0  0  0  0  0  0
   19.6171   22.2274   37.9756 C   0  0  0  0  0  0  0  0  0  0  0  0
  1  2  1  0
  2  3  2  0
  2  4  1  0
  4  5  2  0
  5  6  1  0
  6  7  2  0
  7  8  1  0
  8  9  2  0
  9 10  1  0
 10 11  2  0
 11 12  1  0
 12 13  2  0
 13 14  1  0
  1 15  1  0
 15 16  2  0
 16 17  1  0
 17 18  2  0
 18 19  1  0
 19 20  1  0
 20 21  1  0
 21 22  1  0
 22 23  1  0
 23 24  1  0
 24 25  1  0
 25 26  2  0
 20 27  1  0
 13  4  1  0
 26 15  1  0
 12  7  1  0
 25 18  1  0
M  END
>  <AAScore>  (1) 
35913.61398177141

>  <RootName>  (1) 
./4ZLY/04_DeltaGEst/trajectory_05/rank_00/lead_0111

$$$$
