confid_14
     RDKit          3D

 28 31  0  0  0  0  0  0  0  0999 V2000
   24.2000   26.2400   35.6900 N   0  0  0  0  0  0  0  0  0  0  0  0
   24.8500   26.2800   34.4800 C   0  0  0  0  0  0  0  0  0  0  0  0
   24.3100   25.7400   33.5400 O   0  0  0  0  0  0  0  0  0  0  0  0
   26.1800   26.9700   34.4700 C   0  0  0  0  0  0  0  0  0  0  0  0
   26.6500   27.6000   35.5500 N   0  0  0  0  0  0  0  0  0  0  0  0
   27.7900   28.2700   35.6200 N   0  0  0  0  0  0  0  0  0  0  0  0
   28.5400   28.3000   34.5100 C   0  0  0  0  0  0  0  0  0  0  0  0
   29.7700   28.9400   34.5600 C   0  0  0  0  0  0  0  0  0  0  0  0
   30.7000   28.8900   33.5000 C   0  0  0  0  0  0  0  0  0  0  0  0
   30.3700   28.1400   32.3700 C   0  0  0  0  0  0  0  0  0  0  0  0
   29.1200   27.5200   32.2800 C   0  0  0  0  0  0  0  0  0  0  0  0
   28.2100   27.6100   33.3300 C   0  0  0  0  0  0  0  0  0  0  0  0
   26.9700   26.9700   33.3100 C   0  0  0  0  0  0  0  0  0  0  0  0
   26.5300   26.2400   32.2200 N   0  0  0  0  0  0  0  0  0  0  0  0
   30.1357   29.6954   35.7323 N   0  0  0  0  0  0  0  0  0  0  0  0
   29.3224   30.8411   36.1616 C   0  0  0  0  0  0  0  0  0  0  0  0
   30.1993   31.9489   36.7760 C   0  0  0  0  0  0  0  0  0  0  0  0
   31.6416   31.9572   36.1930 C   0  0  0  0  0  0  0  0  0  0  0  0
   32.4490   33.1124   36.8217 C   0  0  0  0  0  0  0  0  0  0  0  0
   32.3183   34.2292   35.8992 N   0  0  0  0  0  0  0  0  0  0  0  0
   32.7106   35.5810   36.1963 C   0  0  0  0  0  0  0  0  0  0  0  0
   32.4432   36.4976   35.3711 O   0  0  0  0  0  0  0  0  0  0  0  0
   33.3693   35.9256   37.5091 C   0  0  0  0  0  0  0  0  0  0  0  0
   34.1933   37.2099   37.4327 C   0  0  0  0  0  0  0  0  0  0  0  0
   31.7286   33.8399   34.6311 C   0  0  0  0  0  0  0  0  0  0  0  0
   31.6208   32.3222   34.6863 C   0  0  0  0  0  0  0  0  0  0  0  0
   32.3332   30.5843   36.4641 C   0  0  0  0  0  0  0  0  0  0  0  0
   31.3661   29.3837   36.4644 C   0  0  0  0  0  0  0  0  0  0  0  0
  1  2  1  0
  2  3  2  0
  2  4  1  0
  4  5  2  0
  5  6  1  0
  6  7  2  0
  7  8  1  0
  8  9  2  0
  9 10  1  0
 10 11  2  0
 11 12  1  0
 12 13  2  0
 13 14  1  0
  8 15  1  0
 15 16  1  0
 16 17  1  0
 17 18  1  0
 18 19  1  0
 19 20  1  0
 20 21  1  0
 21 22  2  0
 21 23  1  0
 23 24  1  0
 20 25  1  0
 25 26  1  0
 18 27  1  0
 27 28  1  0
 13  4  1  0
 28 15  1  0
 12  7  1  0
 26 18  1  0
M  END
>  <AAScore>  (1) 
-8.327293654197277

>  <RootName>  (1) 
./4ZLY/04_DeltaGEst/trajectory_04/rank_01/lead_0357

$$$$
