confid_11
     RDKit          3D

 30 34  0  0  0  0  0  0  0  0999 V2000
   25.3300   26.2600   34.7600 N   0  0  0  0  0  0  0  0  0  0  0  0
   26.1200   25.9200   33.6900 C   0  0  0  0  0  0  0  0  0  0  0  0
   25.6300   25.1100   32.9400 O   0  0  0  0  0  0  0  0  0  0  0  0
   27.5200   26.3800   33.4600 C   0  0  0  0  0  0  0  0  0  0  0  0
   28.1600   26.6300   34.6100 N   0  0  0  0  0  0  0  0  0  0  0  0
   29.4800   26.8500   34.5700 N   0  0  0  0  0  0  0  0  0  0  0  0
   30.1900   26.7800   33.4400 C   0  0  0  0  0  0  0  0  0  0  0  0
   31.5600   27.0500   33.5000 C   0  0  0  0  0  0  0  0  0  0  0  0
   32.2700   27.2400   32.3100 C   0  0  0  0  0  0  0  0  0  0  0  0
   31.6100   27.2500   31.0800 C   0  0  0  0  0  0  0  0  0  0  0  0
   30.2700   26.8700   31.0600 C   0  0  0  0  0  0  0  0  0  0  0  0
   29.5100   26.6900   32.2300 C   0  0  0  0  0  0  0  0  0  0  0  0
   28.1400   26.4100   32.2000 C   0  0  0  0  0  0  0  0  0  0  0  0
   27.4300   26.1300   31.0500 N   0  0  0  0  0  0  0  0  0  0  0  0
   27.4185   25.0910   30.0004 C   0  0  0  0  0  0  0  0  0  0  0  0
   26.2917   25.6952   29.2041 C   0  0  0  0  0  0  0  0  0  0  0  0
   26.6421   26.1511   27.7875 C   0  0  0  0  0  0  0  0  0  0  0  0
   25.9105   25.2343   26.9236 N   0  0  0  0  0  0  0  0  0  0  0  0
   26.2178   25.0289   25.5325 C   0  0  0  0  0  0  0  0  0  0  0  0
   25.9074   23.9369   24.9832 O   0  0  0  0  0  0  0  0  0  0  0  0
   26.9096   26.0589   24.7305 C   0  0  0  0  0  0  0  0  0  0  0  0
   27.9394   25.6875   23.8498 C   0  0  0  0  0  0  0  0  0  0  0  0
   28.5919   26.6550   23.0794 C   0  0  0  0  0  0  0  0  0  0  0  0
   28.2121   27.9965   23.1711 C   0  0  0  0  0  0  0  0  0  0  0  0
   27.1736   28.3719   24.0280 C   0  0  0  0  0  0  0  0  0  0  0  0
   26.7928   29.6710   24.1021 F   0  0  0  0  0  0  0  0  0  0  0  0
   26.5199   27.4070   24.8014 C   0  0  0  0  0  0  0  0  0  0  0  0
   25.0152   24.3502   27.6618 C   0  0  0  0  0  0  0  0  0  0  0  0
   25.0197   24.8482   29.1036 C   0  0  0  0  0  0  0  0  0  0  0  0
   26.3246   26.7390   30.2821 C   0  0  0  0  0  0  0  0  0  0  0  0
  1  2  1  0
  2  3  2  0
  2  4  1  0
  4  5  2  0
  5  6  1  0
  6  7  2  0
  7  8  1  0
  8  9  2  0
  9 10  1  0
 10 11  2  0
 11 12  1  0
 12 13  2  0
 13 14  1  0
 14 15  1  0
 15 16  1  0
 16 17  1  0
 17 18  1  0
 18 19  1  0
 19 20  2  0
 19 21  1  0
 21 22  2  0
 22 23  1  0
 23 24  2  0
 24 25  1  0
 25 26  1  0
 25 27  2  0
 18 28  1  0
 28 29  1  0
 16 30  1  0
 13  4  1  0
 30 14  1  0
 12  7  1  0
 29 16  1  0
 27 21  1  0
M  END
>  <AAScore>  (1) 
12.379521479682372

>  <RootName>  (1) 
./4ZLY/04_DeltaGEst/trajectory_03/rank_01/lead_0194

$$$$
