confid_10
     RDKit          3D

 32 35  0  0  0  0  0  0  0  0999 V2000
   24.4800   26.1000   36.1300 N   0  0  0  0  0  0  0  0  0  0  0  0
   25.2500   26.2500   34.9900 C   0  0  0  0  0  0  0  0  0  0  0  0
   24.7400   25.7600   33.9900 O   0  0  0  0  0  0  0  0  0  0  0  0
   26.5900   26.8900   34.9600 C   0  0  0  0  0  0  0  0  0  0  0  0
   27.0600   27.2400   36.1600 N   0  0  0  0  0  0  0  0  0  0  0  0
   28.3000   27.7100   36.2400 N   0  0  0  0  0  0  0  0  0  0  0  0
   29.0500   27.9600   35.1500 C   0  0  0  0  0  0  0  0  0  0  0  0
   30.3400   28.4900   35.2600 C   0  0  0  0  0  0  0  0  0  0  0  0
   31.1100   28.8200   34.1400 C   0  0  0  0  0  0  0  0  0  0  0  0
   30.5200   28.6700   32.8800 C   0  0  0  0  0  0  0  0  0  0  0  0
   29.2900   28.0200   32.7700 C   0  0  0  0  0  0  0  0  0  0  0  0
   28.5200   27.7100   33.8900 C   0  0  0  0  0  0  0  0  0  0  0  0
   27.2700   27.0800   33.7600 C   0  0  0  0  0  0  0  0  0  0  0  0
   26.7500   26.8800   32.4900 N   0  0  0  0  0  0  0  0  0  0  0  0
   23.0398   26.0165   36.2437 C   0  0  0  0  0  0  0  0  0  0  0  0
   22.4838   26.1015   37.4100 N   0  0  0  0  0  0  0  0  0  0  0  0
   21.0785   26.0475   37.2410 C   0  0  0  0  0  0  0  0  0  0  0  0
   20.7625   25.9341   35.9646 C   0  0  0  0  0  0  0  0  0  0  0  0
   19.3846   26.1171   35.4003 C   0  0  0  0  0  0  0  0  0  0  0  0
   19.4268   26.5979   34.0088 N   0  0  0  0  0  0  0  0  0  0  0  0
   18.1773   26.6498   33.2475 C   0  0  0  0  0  0  0  0  0  0  0  0
   20.6524   27.0536   33.3914 C   0  0  0  0  0  0  0  0  0  0  0  0
   20.6417   27.4894   32.2082 O   0  0  0  0  0  0  0  0  0  0  0  0
   21.9548   27.0396   34.1500 C   0  0  0  0  0  0  0  0  0  0  0  0
   22.0045   25.8478   35.1314 C   0  0  1  0  0  0  0  0  0  0  0  0
   22.0478   24.4659   34.3973 C   0  0  0  0  0  0  0  0  0  0  0  0
   22.1604   23.2345   35.3205 C   0  0  0  0  0  0  0  0  0  0  0  0
   23.5290   23.0991   35.8736 N   0  0  0  0  0  0  0  0  0  0  0  0
   23.4665   22.4753   37.2102 C   0  0  0  0  0  0  0  0  0  0  0  0
   24.3977   22.2990   34.9744 C   0  0  0  0  0  0  0  0  0  0  0  0
   25.8726   22.7062   35.1322 C   0  0  0  0  0  0  0  0  0  0  0  0
   26.8135   21.5624   34.7496 C   0  0  0  0  0  0  0  0  0  0  0  0
  1  2  1  0
  2  3  2  0
  2  4  1  0
  4  5  2  0
  5  6  1  0
  6  7  2  0
  7  8  1  0
  8  9  2  0
  9 10  1  0
 10 11  2  0
 11 12  1  0
 12 13  2  0
 13 14  1  0
  1 15  1  0
 15 16  2  0
 16 17  1  0
 17 18  2  0
 18 19  1  0
 19 20  1  0
 20 21  1  0
 20 22  1  0
 22 23  2  0
 22 24  1  0
 24 25  1  0
 25 26  1  6
 26 27  1  0
 27 28  1  0
 28 29  1  0
 28 30  1  0
 30 31  1  0
 31 32  1  0
 13  4  1  0
 25 15  1  0
 12  7  1  0
 25 18  1  0
M  END
>  <AAScore>  (1) 
749.5972784324765

>  <RootName>  (1) 
./4ZLY/04_DeltaGEst/trajectory_00/rank_00/lead_0404

$$$$
