confid_4
     RDKit          3D

 28 32  0  0  0  0  0  0  0  0999 V2000
   24.2000   26.2400   35.6900 N   0  0  0  0  0  0  0  0  0  0  0  0
   24.8500   26.2800   34.4800 C   0  0  0  0  0  0  0  0  0  0  0  0
   24.3100   25.7400   33.5400 O   0  0  0  0  0  0  0  0  0  0  0  0
   26.1800   26.9700   34.4700 C   0  0  0  0  0  0  0  0  0  0  0  0
   26.6500   27.6000   35.5500 N   0  0  0  0  0  0  0  0  0  0  0  0
   27.7900   28.2700   35.6200 N   0  0  0  0  0  0  0  0  0  0  0  0
   28.5400   28.3000   34.5100 C   0  0  0  0  0  0  0  0  0  0  0  0
   29.7700   28.9400   34.5600 C   0  0  0  0  0  0  0  0  0  0  0  0
   30.7000   28.8900   33.5000 C   0  0  0  0  0  0  0  0  0  0  0  0
   30.3700   28.1400   32.3700 C   0  0  0  0  0  0  0  0  0  0  0  0
   29.1200   27.5200   32.2800 C   0  0  0  0  0  0  0  0  0  0  0  0
   28.2100   27.6100   33.3300 C   0  0  0  0  0  0  0  0  0  0  0  0
   26.9700   26.9700   33.3100 C   0  0  0  0  0  0  0  0  0  0  0  0
   26.5300   26.2400   32.2200 N   0  0  0  0  0  0  0  0  0  0  0  0
   23.1310   25.3172   35.9980 C   0  0  0  0  0  0  0  0  0  0  0  0
   23.0603   24.1241   35.3377 N   0  0  0  0  0  0  0  0  0  0  0  0
   22.0998   23.2212   35.6396 C   0  0  0  0  0  0  0  0  0  0  0  0
   21.9110   21.9039   34.9834 C   0  0  0  0  0  0  0  0  0  0  0  0
   20.6612   21.3390   35.6929 C   0  0  0  0  0  0  0  0  0  0  0  0
   20.2794   22.3317   36.7017 N   0  0  0  0  0  0  0  0  0  0  0  0
   21.1759   23.4408   36.6210 C   0  0  0  0  0  0  0  0  0  0  0  0
   21.2048   24.6401   37.3652 C   0  0  0  0  0  0  0  0  0  0  0  0
   20.2255   24.9358   38.4748 C   0  0  0  0  0  0  0  0  0  0  0  0
   20.6494   26.1674   39.2799 C   0  0  0  0  0  0  0  0  0  0  0  0
   20.9893   27.2223   38.4061 O   0  0  0  0  0  0  0  0  0  0  0  0
   22.2169   26.9309   37.7644 C   0  0  0  0  0  0  0  0  0  0  0  0
   22.1790   25.6114   37.0143 C   0  0  0  0  0  0  0  0  0  0  0  0
   19.0558   22.2125   37.4896 C   0  0  0  0  0  0  0  0  0  0  0  0
  1  2  1  0
  2  3  2  0
  2  4  1  0
  4  5  2  0
  5  6  1  0
  6  7  2  0
  7  8  1  0
  8  9  2  0
  9 10  1  0
 10 11  2  0
 11 12  1  0
 12 13  2  0
 13 14  1  0
  1 15  1  0
 15 16  2  0
 16 17  1  0
 17 18  1  0
 18 19  1  0
 19 20  1  0
 20 21  1  0
 21 22  1  0
 22 23  1  0
 23 24  1  0
 24 25  1  0
 25 26  1  0
 26 27  1  0
 20 28  1  0
 13  4  1  0
 27 15  1  0
 12  7  1  0
 21 17  2  0
 27 22  2  0
M  END
>  <AAScore>  (1) 
508.8752371108361

>  <RootName>  (1) 
./4ZLY/04_DeltaGEst/trajectory_04/rank_00/lead_0248

$$$$
