confid_10
     RDKit          3D

 27 30  0  0  0  0  0  0  0  0999 V2000
   24.6900   26.1200   35.5300 N   0  0  0  0  0  0  0  0  0  0  0  0
   25.6600   25.6700   34.6600 C   0  0  0  0  0  0  0  0  0  0  0  0
   25.2400   25.0100   33.7200 O   0  0  0  0  0  0  0  0  0  0  0  0
   27.0300   26.2200   34.8800 C   0  0  0  0  0  0  0  0  0  0  0  0
   27.3500   26.7300   36.0700 N   0  0  0  0  0  0  0  0  0  0  0  0
   28.5700   27.1800   36.3300 N   0  0  0  0  0  0  0  0  0  0  0  0
   29.5300   27.1100   35.3900 C   0  0  0  0  0  0  0  0  0  0  0  0
   30.8300   27.5700   35.6500 C   0  0  0  0  0  0  0  0  0  0  0  0
   31.8500   27.5400   34.6900 C   0  0  0  0  0  0  0  0  0  0  0  0
   31.5100   27.1200   33.4000 C   0  0  0  0  0  0  0  0  0  0  0  0
   30.2200   26.6300   33.1100 C   0  0  0  0  0  0  0  0  0  0  0  0
   29.2400   26.6600   34.1000 C   0  0  0  0  0  0  0  0  0  0  0  0
   27.9300   26.2600   33.8100 C   0  0  0  0  0  0  0  0  0  0  0  0
   27.5200   25.7100   32.6100 N   0  0  0  0  0  0  0  0  0  0  0  0
   23.3877   25.5223   35.6668 C   0  0  0  0  0  0  0  0  0  0  0  0
   22.7630   25.4173   36.8647 N   0  0  0  0  0  0  0  0  0  0  0  0
   21.5055   25.0185   36.5542 C   0  0  0  0  0  0  0  0  0  0  0  0
   21.4085   24.8963   35.1855 C   0  0  0  0  0  0  0  0  0  0  0  0
   20.2632   25.1502   34.2832 C   0  0  0  0  0  0  0  0  0  0  0  0
   20.9393   25.6975   33.1005 N   0  0  0  0  0  0  0  0  0  0  0  0
   20.2515   26.0543   31.8879 C   0  0  0  0  0  0  0  0  0  0  0  0
   19.0088   25.8555   31.8072 O   0  0  0  0  0  0  0  0  0  0  0  0
   20.9992   26.5921   30.6860 C   0  0  0  0  0  0  0  0  0  0  0  0
   20.1550   27.6153   29.9147 C   0  0  0  0  0  0  0  0  0  0  0  0
   21.4124   25.4369   29.7688 C   0  0  0  0  0  0  0  0  0  0  0  0
   22.3894   25.7888   33.3209 C   0  0  0  0  0  0  0  0  0  0  0  0
   22.5749   25.1996   34.6354 N   0  0  0  0  0  0  0  0  0  0  0  0
  1  2  1  0
  2  3  2  0
  2  4  1  0
  4  5  2  0
  5  6  1  0
  6  7  2  0
  7  8  1  0
  8  9  2  0
  9 10  1  0
 10 11  2  0
 11 12  1  0
 12 13  2  0
 13 14  1  0
  1 15  1  0
 15 16  2  0
 16 17  1  0
 17 18  2  0
 18 19  1  0
 19 20  1  0
 20 21  1  0
 21 22  2  0
 21 23  1  0
 23 24  1  0
 23 25  1  0
 20 26  1  0
 26 27  1  0
 13  4  1  0
 27 15  1  0
 12  7  1  0
 27 18  1  0
M  END
>  <AAScore>  (1) 
4323.429788757343

>  <RootName>  (1) 
./4ZLY/04_DeltaGEst/trajectory_02/rank_00/lead_0302

$$$$
