confid_6
     RDKit          3D

 28 31  0  0  0  0  0  0  0  0999 V2000
   25.3300   26.2600   34.7600 N   0  0  0  0  0  0  0  0  0  0  0  0
   26.1200   25.9200   33.6900 C   0  0  0  0  0  0  0  0  0  0  0  0
   25.6300   25.1100   32.9400 O   0  0  0  0  0  0  0  0  0  0  0  0
   27.5200   26.3800   33.4600 C   0  0  0  0  0  0  0  0  0  0  0  0
   28.1600   26.6300   34.6100 N   0  0  0  0  0  0  0  0  0  0  0  0
   29.4800   26.8500   34.5700 N   0  0  0  0  0  0  0  0  0  0  0  0
   30.1900   26.7800   33.4400 C   0  0  0  0  0  0  0  0  0  0  0  0
   31.5600   27.0500   33.5000 C   0  0  0  0  0  0  0  0  0  0  0  0
   32.2700   27.2400   32.3100 C   0  0  0  0  0  0  0  0  0  0  0  0
   31.6100   27.2500   31.0800 C   0  0  0  0  0  0  0  0  0  0  0  0
   30.2700   26.8700   31.0600 C   0  0  0  0  0  0  0  0  0  0  0  0
   29.5100   26.6900   32.2300 C   0  0  0  0  0  0  0  0  0  0  0  0
   28.1400   26.4100   32.2000 C   0  0  0  0  0  0  0  0  0  0  0  0
   27.4300   26.1300   31.0500 N   0  0  0  0  0  0  0  0  0  0  0  0
   23.9185   26.0039   34.8933 C   0  0  0  0  0  0  0  0  0  0  0  0
   23.2951   26.3077   36.0623 N   0  0  0  0  0  0  0  0  0  0  0  0
   21.9626   26.1069   36.2245 C   0  0  0  0  0  0  0  0  0  0  0  0
   21.1971   25.5903   35.1736 C   0  0  0  0  0  0  0  0  0  0  0  0
   19.7292   25.2897   35.3690 C   0  0  0  0  0  0  0  0  0  0  0  0
   19.5004   23.8101   35.7282 C   0  0  0  0  0  0  0  0  0  0  0  0
   20.6018   22.9513   35.2295 N   0  0  0  0  0  0  0  0  0  0  0  0
   20.7586   21.7687   36.0928 C   0  0  0  0  0  0  0  0  0  0  0  0
   20.4065   22.5190   33.8295 C   0  0  0  0  0  0  0  0  0  0  0  0
   20.3578   23.6387   32.8107 C   0  0  0  0  0  0  0  0  0  0  0  0
   21.1205   24.7522   32.7962 C   0  0  0  0  0  0  0  0  0  0  0  0
   21.0758   25.6397   31.5838 C   0  0  0  0  0  0  0  0  0  0  0  0
   21.8609   25.2495   33.9772 C   0  0  0  0  0  0  0  0  0  0  0  0
   23.1934   25.4903   33.8625 N   0  0  0  0  0  0  0  0  0  0  0  0
  1  2  1  0
  2  3  2  0
  2  4  1  0
  4  5  2  0
  5  6  1  0
  6  7  2  0
  7  8  1  0
  8  9  2  0
  9 10  1  0
 10 11  2  0
 11 12  1  0
 12 13  2  0
 13 14  1  0
  1 15  1  0
 15 16  2  0
 16 17  1  0
 17 18  2  0
 18 19  1  0
 19 20  1  0
 20 21  1  0
 21 22  1  0
 21 23  1  0
 23 24  1  0
 24 25  2  0
 25 26  1  0
 25 27  1  0
 27 28  2  0
 13  4  1  0
 28 15  1  0
 12  7  1  0
 27 18  1  0
M  END
>  <AAScore>  (1) 
12226.264024975528

>  <RootName>  (1) 
./4ZLY/04_DeltaGEst/trajectory_03/rank_00/lead_0104

$$$$
