confid_3
     RDKit          3D

 27 30  0  0  0  0  0  0  0  0999 V2000
   24.5500   26.3900   36.2500 N   0  0  0  0  0  0  0  0  0  0  0  0
   25.6000   26.1300   35.4000 C   0  0  0  0  0  0  0  0  0  0  0  0
   25.4300   25.4300   34.4200 O   0  0  0  0  0  0  0  0  0  0  0  0
   26.9800   26.6300   35.7100 C   0  0  0  0  0  0  0  0  0  0  0  0
   27.3200   26.8200   36.9800 N   0  0  0  0  0  0  0  0  0  0  0  0
   28.4700   27.4000   37.3100 N   0  0  0  0  0  0  0  0  0  0  0  0
   29.4000   27.6300   36.3700 C   0  0  0  0  0  0  0  0  0  0  0  0
   30.6600   28.0500   36.8000 C   0  0  0  0  0  0  0  0  0  0  0  0
   31.5700   28.3600   35.7800 C   0  0  0  0  0  0  0  0  0  0  0  0
   31.3700   28.1000   34.4300 C   0  0  0  0  0  0  0  0  0  0  0  0
   30.1200   27.5900   34.0500 C   0  0  0  0  0  0  0  0  0  0  0  0
   29.1500   27.3400   35.0300 C   0  0  0  0  0  0  0  0  0  0  0  0
   27.8800   26.8900   34.6600 C   0  0  0  0  0  0  0  0  0  0  0  0
   27.4800   26.6100   33.3700 N   0  0  0  0  0  0  0  0  0  0  0  0
   30.9808   28.2755   38.1870 N   0  0  0  0  0  0  0  0  0  0  0  0
   30.8433   27.2566   39.2165 C   0  0  0  0  0  0  0  0  0  0  0  0
   31.6198   27.7956   40.4219 C   0  0  2  0  0  0  0  0  0  0  0  0
   30.9657   27.4678   41.7585 C   0  0  0  0  0  0  0  0  0  0  0  0
   29.6561   27.9138   42.0318 C   0  0  0  0  0  0  0  0  0  0  0  0
   29.0431   27.6232   43.2506 C   0  0  0  0  0  0  0  0  0  0  0  0
   29.7238   26.8853   44.2162 C   0  0  0  0  0  0  0  0  0  0  0  0
   31.0208   26.4349   43.9678 C   0  0  0  0  0  0  0  0  0  0  0  0
   31.6565   26.7190   42.7415 C   0  0  0  0  0  0  0  0  0  0  0  0
   32.9625   26.2738   42.4750 O   0  0  0  0  0  0  0  0  0  0  0  0
   33.7611   25.5149   43.3771 C   0  0  0  0  0  0  0  0  0  0  0  0
   31.7666   29.3031   40.1763 C   0  0  0  0  0  0  0  0  0  0  0  0
   31.6494   29.4750   38.6676 C   0  0  0  0  0  0  0  0  0  0  0  0
  1  2  1  0
  2  3  2  0
  2  4  1  0
  4  5  2  0
  5  6  1  0
  6  7  2  0
  7  8  1  0
  8  9  2  0
  9 10  1  0
 10 11  2  0
 11 12  1  0
 12 13  2  0
 13 14  1  0
  8 15  1  0
 15 16  1  0
 16 17  1  0
 17 18  1  1
 18 19  2  0
 19 20  1  0
 20 21  2  0
 21 22  1  0
 22 23  2  0
 23 24  1  0
 24 25  1  0
 17 26  1  0
 26 27  1  0
 13  4  1  0
 27 15  1  0
 12  7  1  0
 23 18  1  0
M  END
>  <AAScore>  (1) 
57.10041111951411

>  <RootName>  (1) 
./4ZLY/04_DeltaGEst/trajectory_01/rank_01/lead_0496

$$$$
