confid_12
     RDKit          3D

 27 30  0  0  0  0  0  0  0  0999 V2000
   24.4800   26.1000   36.1300 N   0  0  0  0  0  0  0  0  0  0  0  0
   25.2500   26.2500   34.9900 C   0  0  0  0  0  0  0  0  0  0  0  0
   24.7400   25.7600   33.9900 O   0  0  0  0  0  0  0  0  0  0  0  0
   26.5900   26.8900   34.9600 C   0  0  0  0  0  0  0  0  0  0  0  0
   27.0600   27.2400   36.1600 N   0  0  0  0  0  0  0  0  0  0  0  0
   28.3000   27.7100   36.2400 N   0  0  0  0  0  0  0  0  0  0  0  0
   29.0500   27.9600   35.1500 C   0  0  0  0  0  0  0  0  0  0  0  0
   30.3400   28.4900   35.2600 C   0  0  0  0  0  0  0  0  0  0  0  0
   31.1100   28.8200   34.1400 C   0  0  0  0  0  0  0  0  0  0  0  0
   30.5200   28.6700   32.8800 C   0  0  0  0  0  0  0  0  0  0  0  0
   29.2900   28.0200   32.7700 C   0  0  0  0  0  0  0  0  0  0  0  0
   28.5200   27.7100   33.8900 C   0  0  0  0  0  0  0  0  0  0  0  0
   27.2700   27.0800   33.7600 C   0  0  0  0  0  0  0  0  0  0  0  0
   26.7500   26.8800   32.4900 N   0  0  0  0  0  0  0  0  0  0  0  0
   23.5340   25.0405   36.3637 C   0  0  0  0  0  0  0  0  0  0  0  0
   22.4716   25.2748   37.1743 N   0  0  0  0  0  0  0  0  0  0  0  0
   21.5559   24.3162   37.4629 C   0  0  0  0  0  0  0  0  0  0  0  0
   21.6729   23.0204   36.9322 C   0  0  0  0  0  0  0  0  0  0  0  0
   20.6320   22.0082   37.3961 C   0  0  0  0  0  0  0  0  0  0  0  0
   20.6997   20.6905   36.7335 N   0  0  0  0  0  0  0  0  0  0  0  0
   19.6535   19.8059   37.2719 C   0  0  0  0  0  0  0  0  0  0  0  0
   20.5799   20.8185   35.2668 C   0  0  0  0  0  0  0  0  0  0  0  0
   21.9695   20.7265   34.6442 C   0  0  0  0  0  0  0  0  0  0  0  0
   23.0221   21.4235   35.4618 C   0  0  0  0  0  0  0  0  0  0  0  0
   24.1755   20.9174   35.5205 O   0  0  0  0  0  0  0  0  0  0  0  0
   22.7830   22.7417   36.0883 C   0  0  0  0  0  0  0  0  0  0  0  0
   23.7172   23.7577   35.8289 C   0  0  0  0  0  0  0  0  0  0  0  0
  1  2  1  0
  2  3  2  0
  2  4  1  0
  4  5  2  0
  5  6  1  0
  6  7  2  0
  7  8  1  0
  8  9  2  0
  9 10  1  0
 10 11  2  0
 11 12  1  0
 12 13  2  0
 13 14  1  0
  1 15  1  0
 15 16  2  0
 16 17  1  0
 17 18  2  0
 18 19  1  0
 19 20  1  0
 20 21  1  0
 20 22  1  0
 22 23  1  0
 23 24  1  0
 24 25  2  0
 24 26  1  0
 26 27  2  0
 13  4  1  0
 27 15  1  0
 12  7  1  0
 26 18  1  0
M  END
>  <AAScore>  (1) 
1622.5194622688884

>  <RootName>  (1) 
./4ZLY/04_DeltaGEst/trajectory_00/rank_01/lead_0446

$$$$
