confid_8
     RDKit          3D

 28 31  0  0  0  0  0  0  0  0999 V2000
   24.5700   26.8800   35.5900 N   0  0  0  0  0  0  0  0  0  0  0  0
   25.5000   26.4000   34.6900 C   0  0  0  0  0  0  0  0  0  0  0  0
   25.1700   25.5200   33.9100 O   0  0  0  0  0  0  0  0  0  0  0  0
   26.8400   27.0200   34.7400 C   0  0  0  0  0  0  0  0  0  0  0  0
   27.3800   27.2800   35.9400 N   0  0  0  0  0  0  0  0  0  0  0  0
   28.6200   27.7400   36.0300 N   0  0  0  0  0  0  0  0  0  0  0  0
   29.3800   28.0000   34.9600 C   0  0  0  0  0  0  0  0  0  0  0  0
   30.6700   28.5000   35.1300 C   0  0  0  0  0  0  0  0  0  0  0  0
   31.5400   28.6100   34.0300 C   0  0  0  0  0  0  0  0  0  0  0  0
   31.0900   28.2200   32.7700 C   0  0  0  0  0  0  0  0  0  0  0  0
   29.8000   27.7000   32.6000 C   0  0  0  0  0  0  0  0  0  0  0  0
   28.9600   27.5500   33.7100 C   0  0  0  0  0  0  0  0  0  0  0  0
   27.6600   27.0300   33.5900 C   0  0  0  0  0  0  0  0  0  0  0  0
   27.1600   26.7400   32.3400 N   0  0  0  0  0  0  0  0  0  0  0  0
   23.1469   26.7169   35.4570 C   0  0  0  0  0  0  0  0  0  0  0  0
   22.3803   26.6722   36.5812 N   0  0  0  0  0  0  0  0  0  0  0  0
   21.0278   26.5429   36.5324 C   0  0  0  0  0  0  0  0  0  0  0  0
   20.3736   26.4484   35.2983 C   0  0  0  0  0  0  0  0  0  0  0  0
   18.8702   26.3423   35.2297 C   0  0  0  0  0  0  0  0  0  0  0  0
   18.4024   25.6714   34.0006 N   0  0  0  0  0  0  0  0  0  0  0  0
   17.0377   25.2011   33.9577 C   0  0  0  0  0  0  0  0  0  0  0  0
   16.1799   25.7195   34.7251 O   0  0  0  0  0  0  0  0  0  0  0  0
   16.6049   24.1397   32.9738 C   0  0  0  0  0  0  0  0  0  0  0  0
   15.4071   23.3338   33.4730 C   0  0  0  0  0  0  0  0  0  0  0  0
   19.2915   25.4578   32.8426 C   0  0  0  0  0  0  0  0  0  0  0  0
   20.4288   26.4814   32.7999 C   0  0  0  0  0  0  0  0  0  0  0  0
   21.1317   26.5204   34.1227 C   0  0  0  0  0  0  0  0  0  0  0  0
   22.5218   26.6746   34.1984 C   0  0  0  0  0  0  0  0  0  0  0  0
  1  2  1  0
  2  3  2  0
  2  4  1  0
  4  5  2  0
  5  6  1  0
  6  7  2  0
  7  8  1  0
  8  9  2  0
  9 10  1  0
 10 11  2  0
 11 12  1  0
 12 13  2  0
 13 14  1  0
  1 15  1  0
 15 16  2  0
 16 17  1  0
 17 18  2  0
 18 19  1  0
 19 20  1  0
 20 21  1  0
 21 22  2  0
 21 23  1  0
 23 24  1  0
 20 25  1  0
 25 26  1  0
 26 27  1  0
 27 28  2  0
 13  4  1  0
 28 15  1  0
 12  7  1  0
 27 18  1  0
M  END
>  <AAScore>  (1) 
1029.653829066891

>  <RootName>  (1) 
./4ZLY/04_DeltaGEst/trajectory_05/rank_00/lead_0043

$$$$
