confid_17
     RDKit          3D

 30 34  0  0  0  0  0  0  0  0999 V2000
   24.5700   26.8800   35.5900 N   0  0  0  0  0  0  0  0  0  0  0  0
   25.5000   26.4000   34.6900 C   0  0  0  0  0  0  0  0  0  0  0  0
   25.1700   25.5200   33.9100 O   0  0  0  0  0  0  0  0  0  0  0  0
   26.8400   27.0200   34.7400 C   0  0  0  0  0  0  0  0  0  0  0  0
   27.3800   27.2800   35.9400 N   0  0  0  0  0  0  0  0  0  0  0  0
   28.6200   27.7400   36.0300 N   0  0  0  0  0  0  0  0  0  0  0  0
   29.3800   28.0000   34.9600 C   0  0  0  0  0  0  0  0  0  0  0  0
   30.6700   28.5000   35.1300 C   0  0  0  0  0  0  0  0  0  0  0  0
   31.5400   28.6100   34.0300 C   0  0  0  0  0  0  0  0  0  0  0  0
   31.0900   28.2200   32.7700 C   0  0  0  0  0  0  0  0  0  0  0  0
   29.8000   27.7000   32.6000 C   0  0  0  0  0  0  0  0  0  0  0  0
   28.9600   27.5500   33.7100 C   0  0  0  0  0  0  0  0  0  0  0  0
   27.6600   27.0300   33.5900 C   0  0  0  0  0  0  0  0  0  0  0  0
   27.1600   26.7400   32.3400 N   0  0  0  0  0  0  0  0  0  0  0  0
   33.1596   29.2748   34.2224 S   0  0  0  0  0  6  0  0  0  0  0  0
   34.1205   28.4361   33.4264 O   0  0  0  0  0  0  0  0  0  0  0  0
   33.5552   29.2335   35.6730 O   0  0  0  0  0  0  0  0  0  0  0  0
   33.1715   30.9711   33.6202 C   0  0  1  0  0  0  0  0  0  0  0  0
   32.0576   31.7882   34.2945 C   0  0  0  0  0  0  0  0  0  0  0  0
   32.5444   33.1646   34.4784 N   0  0  0  0  0  0  0  0  0  0  0  0
   33.9885   32.9904   34.7345 C   0  0  2  0  0  0  0  0  0  0  0  0
   34.8267   34.2969   34.6973 C   0  0  0  0  0  0  0  0  0  0  0  0
   34.4270   35.2379   35.8474 C   0  0  0  0  0  0  0  0  0  0  0  0
   33.8579   36.5977   35.4632 C   0  0  0  0  0  0  0  0  0  0  0  0
   35.2932   36.4863   35.9447 C   0  0  0  0  0  0  0  0  0  0  0  0
   34.4641   31.8025   33.8610 C   0  0  0  0  0  0  0  0  0  0  0  0
   35.2176   32.1438   32.5566 C   0  0  0  0  0  0  0  0  0  0  0  0
   36.4820   31.5077   33.1156 C   0  0  0  0  0  0  0  0  0  0  0  0
   35.7457   31.1254   34.3921 C   0  0  0  0  0  0  0  0  0  0  0  0
   32.2485   33.9653   33.2727 C   0  0  0  0  0  0  0  0  0  0  0  0
  1  2  1  0
  2  3  2  0
  2  4  1  0
  4  5  2  0
  5  6  1  0
  6  7  2  0
  7  8  1  0
  8  9  2  0
  9 10  1  0
 10 11  2  0
 11 12  1  0
 12 13  2  0
 13 14  1  0
  9 15  1  0
 15 16  2  0
 15 17  2  0
 18 15  1  1
 18 19  1  0
 19 20  1  0
 20 21  1  0
 21 22  1  6
 22 23  1  0
 23 24  1  0
 24 25  1  0
 21 26  1  0
 26 27  1  0
 27 28  1  0
 28 29  1  0
 20 30  1  0
 13  4  1  0
 26 18  1  0
 12  7  1  0
 25 23  1  0
 29 26  1  0
M  END
>  <AAScore>  (1) 
-6.782403925886362

>  <RootName>  (1) 
./4ZLY/04_DeltaGEst/trajectory_05/rank_01/lead_0269

$$$$
