confid_10
     RDKit          3D

 27 30  0  0  0  0  0  0  0  0999 V2000
   25.3300   26.2600   34.7600 N   0  0  0  0  0  0  0  0  0  0  0  0
   26.1200   25.9200   33.6900 C   0  0  0  0  0  0  0  0  0  0  0  0
   25.6300   25.1100   32.9400 O   0  0  0  0  0  0  0  0  0  0  0  0
   27.5200   26.3800   33.4600 C   0  0  0  0  0  0  0  0  0  0  0  0
   28.1600   26.6300   34.6100 N   0  0  0  0  0  0  0  0  0  0  0  0
   29.4800   26.8500   34.5700 N   0  0  0  0  0  0  0  0  0  0  0  0
   30.1900   26.7800   33.4400 C   0  0  0  0  0  0  0  0  0  0  0  0
   31.5600   27.0500   33.5000 C   0  0  0  0  0  0  0  0  0  0  0  0
   32.2700   27.2400   32.3100 C   0  0  0  0  0  0  0  0  0  0  0  0
   31.6100   27.2500   31.0800 C   0  0  0  0  0  0  0  0  0  0  0  0
   30.2700   26.8700   31.0600 C   0  0  0  0  0  0  0  0  0  0  0  0
   29.5100   26.6900   32.2300 C   0  0  0  0  0  0  0  0  0  0  0  0
   28.1400   26.4100   32.2000 C   0  0  0  0  0  0  0  0  0  0  0  0
   27.4300   26.1300   31.0500 N   0  0  0  0  0  0  0  0  0  0  0  0
   27.5906   24.8188   30.4014 C   0  0  0  0  0  0  0  0  0  0  0  0
   26.7540   24.7329   29.1233 C   0  0  0  0  0  0  0  0  0  0  0  0
   26.9280   25.9638   28.3404 N   0  0  0  0  0  0  0  0  0  0  0  0
   27.3899   25.9085   26.9775 C   0  0  0  0  0  0  0  0  0  0  0  0
   26.7451   26.6565   25.9778 C   0  0  0  0  0  0  0  0  0  0  0  0
   27.2065   26.6232   24.6520 C   0  0  0  0  0  0  0  0  0  0  0  0
   26.4854   27.3915   23.5789 C   0  0  0  0  0  0  0  0  0  0  0  0
   25.5284   26.5744   22.9630 O   0  0  0  0  0  0  0  0  0  0  0  0
   28.3077   25.8182   24.3244 C   0  0  0  0  0  0  0  0  0  0  0  0
   28.9574   25.0789   25.3152 C   0  0  0  0  0  0  0  0  0  0  0  0
   28.5055   25.1257   26.6360 C   0  0  0  0  0  0  0  0  0  0  0  0
   26.7340   27.2729   28.9852 C   0  0  0  0  0  0  0  0  0  0  0  0
   26.5104   27.1328   30.4966 C   0  0  0  0  0  0  0  0  0  0  0  0
  1  2  1  0
  2  3  2  0
  2  4  1  0
  4  5  2  0
  5  6  1  0
  6  7  2  0
  7  8  1  0
  8  9  2  0
  9 10  1  0
 10 11  2  0
 11 12  1  0
 12 13  2  0
 13 14  1  0
 14 15  1  0
 15 16  1  0
 16 17  1  0
 17 18  1  0
 18 19  2  0
 19 20  1  0
 20 21  1  0
 21 22  1  0
 20 23  2  0
 23 24  1  0
 24 25  2  0
 17 26  1  0
 26 27  1  0
 13  4  1  0
 27 14  1  0
 12  7  1  0
 25 18  1  0
M  END
>  <AAScore>  (1) 
2.4898969663257384

>  <RootName>  (1) 
./4ZLY/04_DeltaGEst/trajectory_03/rank_01/lead_0077

$$$$
