confid_19
     RDKit          3D

 28 31  0  0  0  0  0  0  0  0999 V2000
   24.6900   26.1200   35.5300 N   0  0  0  0  0  0  0  0  0  0  0  0
   25.6600   25.6700   34.6600 C   0  0  0  0  0  0  0  0  0  0  0  0
   25.2400   25.0100   33.7200 O   0  0  0  0  0  0  0  0  0  0  0  0
   27.0300   26.2200   34.8800 C   0  0  0  0  0  0  0  0  0  0  0  0
   27.3500   26.7300   36.0700 N   0  0  0  0  0  0  0  0  0  0  0  0
   28.5700   27.1800   36.3300 N   0  0  0  0  0  0  0  0  0  0  0  0
   29.5300   27.1100   35.3900 C   0  0  0  0  0  0  0  0  0  0  0  0
   30.8300   27.5700   35.6500 C   0  0  0  0  0  0  0  0  0  0  0  0
   31.8500   27.5400   34.6900 C   0  0  0  0  0  0  0  0  0  0  0  0
   31.5100   27.1200   33.4000 C   0  0  0  0  0  0  0  0  0  0  0  0
   30.2200   26.6300   33.1100 C   0  0  0  0  0  0  0  0  0  0  0  0
   29.2400   26.6600   34.1000 C   0  0  0  0  0  0  0  0  0  0  0  0
   27.9300   26.2600   33.8100 C   0  0  0  0  0  0  0  0  0  0  0  0
   27.5200   25.7100   32.6100 N   0  0  0  0  0  0  0  0  0  0  0  0
   31.1473   28.0680   36.9598 N   0  0  0  0  0  0  0  0  0  0  0  0
   30.5843   29.3432   37.4213 C   0  0  0  0  0  0  0  0  0  0  0  0
   29.9869   29.1756   38.8251 C   0  0  0  0  0  0  0  0  0  0  0  0
   30.8359   28.3282   39.6817 N   0  0  0  0  0  0  0  0  0  0  0  0
   30.2615   27.6810   40.8350 C   0  0  0  0  0  0  0  0  0  0  0  0
   30.6035   26.5006   41.1232 O   0  0  0  0  0  0  0  0  0  0  0  0
   29.2615   28.3633   41.6835 C   0  0  0  0  0  0  0  0  0  0  0  0
   29.3956   29.7274   41.9945 C   0  0  0  0  0  0  0  0  0  0  0  0
   28.4549   30.3600   42.8130 C   0  0  0  0  0  0  0  0  0  0  0  0
   27.3773   29.6367   43.3313 C   0  0  0  0  0  0  0  0  0  0  0  0
   27.2417   28.2781   43.0362 C   0  0  0  0  0  0  0  0  0  0  0  0
   28.1841   27.6398   42.2230 C   0  0  0  0  0  0  0  0  0  0  0  0
   32.1714   27.9396   39.2085 C   0  0  0  0  0  0  0  0  0  0  0  0
   32.0562   27.2997   37.8221 C   0  0  0  0  0  0  0  0  0  0  0  0
  1  2  1  0
  2  3  2  0
  2  4  1  0
  4  5  2  0
  5  6  1  0
  6  7  2  0
  7  8  1  0
  8  9  2  0
  9 10  1  0
 10 11  2  0
 11 12  1  0
 12 13  2  0
 13 14  1  0
  8 15  1  0
 15 16  1  0
 16 17  1  0
 17 18  1  0
 18 19  1  0
 19 20  2  0
 19 21  1  0
 21 22  2  0
 22 23  1  0
 23 24  2  0
 24 25  1  0
 25 26  2  0
 18 27  1  0
 27 28  1  0
 13  4  1  0
 28 15  1  0
 12  7  1  0
 26 21  1  0
M  END
>  <AAScore>  (1) 
19.88787996970825

>  <RootName>  (1) 
./4ZLY/04_DeltaGEst/trajectory_02/rank_01/lead_0339

$$$$
