confid_11
     RDKit          3D

 28 31  0  0  0  0  0  0  0  0999 V2000
   24.2000   26.2400   35.6900 N   0  0  0  0  0  0  0  0  0  0  0  0
   24.8500   26.2800   34.4800 C   0  0  0  0  0  0  0  0  0  0  0  0
   24.3100   25.7400   33.5400 O   0  0  0  0  0  0  0  0  0  0  0  0
   26.1800   26.9700   34.4700 C   0  0  0  0  0  0  0  0  0  0  0  0
   26.6500   27.6000   35.5500 N   0  0  0  0  0  0  0  0  0  0  0  0
   27.7900   28.2700   35.6200 N   0  0  0  0  0  0  0  0  0  0  0  0
   28.5400   28.3000   34.5100 C   0  0  0  0  0  0  0  0  0  0  0  0
   29.7700   28.9400   34.5600 C   0  0  0  0  0  0  0  0  0  0  0  0
   30.7000   28.8900   33.5000 C   0  0  0  0  0  0  0  0  0  0  0  0
   30.3700   28.1400   32.3700 C   0  0  0  0  0  0  0  0  0  0  0  0
   29.1200   27.5200   32.2800 C   0  0  0  0  0  0  0  0  0  0  0  0
   28.2100   27.6100   33.3300 C   0  0  0  0  0  0  0  0  0  0  0  0
   26.9700   26.9700   33.3100 C   0  0  0  0  0  0  0  0  0  0  0  0
   26.5300   26.2400   32.2200 N   0  0  0  0  0  0  0  0  0  0  0  0
   30.1305   29.6755   35.7417 N   0  0  0  0  0  0  0  0  0  0  0  0
   29.5292   31.0058   35.9497 C   0  0  0  0  0  0  0  0  0  0  0  0
   30.4516   32.1288   35.4452 C   0  0  0  0  0  0  0  0  0  0  0  0
   31.8795   31.7478   35.5423 N   0  0  0  0  0  0  0  0  0  0  0  0
   32.4621   32.0221   36.8744 C   0  0  0  0  0  0  0  0  0  0  0  0
   31.8405   31.2258   38.0141 C   0  0  0  0  0  0  0  0  0  0  0  0
   31.8377   31.8262   39.2878 C   0  0  0  0  0  0  0  0  0  0  0  0
   31.3347   31.1509   40.4004 C   0  0  0  0  0  0  0  0  0  0  0  0
   31.3333   31.7532   41.6151 F   0  0  0  0  0  0  0  0  0  0  0  0
   30.8343   29.8588   40.2649 C   0  0  0  0  0  0  0  0  0  0  0  0
   30.8412   29.2341   39.0186 C   0  0  0  0  0  0  0  0  0  0  0  0
   31.3586   29.8902   37.8862 C   0  0  0  0  0  0  0  0  0  0  0  0
   31.2639   29.1859   36.5507 C   0  0  0  0  0  0  0  0  0  0  0  0
   32.6651   32.4392   34.5064 C   0  0  0  0  0  0  0  0  0  0  0  0
  1  2  1  0
  2  3  2  0
  2  4  1  0
  4  5  2  0
  5  6  1  0
  6  7  2  0
  7  8  1  0
  8  9  2  0
  9 10  1  0
 10 11  2  0
 11 12  1  0
 12 13  2  0
 13 14  1  0
  8 15  1  0
 15 16  1  0
 16 17  1  0
 17 18  1  0
 18 19  1  0
 19 20  1  0
 20 21  2  0
 21 22  1  0
 22 23  1  0
 22 24  2  0
 24 25  1  0
 25 26  2  0
 26 27  1  0
 18 28  1  0
 13  4  1  0
 27 15  1  0
 12  7  1  0
 26 20  1  0
M  END
>  <AAScore>  (1) 
-7.417867916439268

>  <RootName>  (1) 
./4ZLY/04_DeltaGEst/trajectory_04/rank_01/lead_0044

$$$$
