confid_18
     RDKit          3D

 26 29  0  0  0  0  0  0  0  0999 V2000
   24.5700   26.8800   35.5900 N   0  0  0  0  0  0  0  0  0  0  0  0
   25.5000   26.4000   34.6900 C   0  0  0  0  0  0  0  0  0  0  0  0
   25.1700   25.5200   33.9100 O   0  0  0  0  0  0  0  0  0  0  0  0
   26.8400   27.0200   34.7400 C   0  0  0  0  0  0  0  0  0  0  0  0
   27.3800   27.2800   35.9400 N   0  0  0  0  0  0  0  0  0  0  0  0
   28.6200   27.7400   36.0300 N   0  0  0  0  0  0  0  0  0  0  0  0
   29.3800   28.0000   34.9600 C   0  0  0  0  0  0  0  0  0  0  0  0
   30.6700   28.5000   35.1300 C   0  0  0  0  0  0  0  0  0  0  0  0
   31.5400   28.6100   34.0300 C   0  0  0  0  0  0  0  0  0  0  0  0
   31.0900   28.2200   32.7700 C   0  0  0  0  0  0  0  0  0  0  0  0
   29.8000   27.7000   32.6000 C   0  0  0  0  0  0  0  0  0  0  0  0
   28.9600   27.5500   33.7100 C   0  0  0  0  0  0  0  0  0  0  0  0
   27.6600   27.0300   33.5900 C   0  0  0  0  0  0  0  0  0  0  0  0
   27.1600   26.7400   32.3400 N   0  0  0  0  0  0  0  0  0  0  0  0
   23.3108   26.2530   35.8909 C   0  0  0  0  0  0  0  0  0  0  0  0
   23.0103   24.9904   35.3880 N   0  0  0  0  0  0  0  0  0  0  0  0
   21.8317   24.3335   35.6503 C   0  0  0  0  0  0  0  0  0  0  0  0
   20.9495   25.0051   36.4594 C   0  0  0  0  0  0  0  0  0  0  0  0
   19.6748   24.9832   37.1175 O   0  0  0  0  0  0  0  0  0  0  0  0
   19.9966   26.2487   37.5959 C   0  0  1  0  0  0  0  0  0  0  0  0
   20.0838   26.2761   39.1270 C   0  0  0  0  0  0  0  0  0  0  0  0
   20.5817   27.4976   39.5433 F   0  0  0  0  0  0  0  0  0  0  0  0
   18.8198   26.1032   39.6599 F   0  0  0  0  0  0  0  0  0  0  0  0
   20.9096   25.2665   39.5934 F   0  0  0  0  0  0  0  0  0  0  0  0
   21.2730   26.2588   36.9519 C   0  0  0  0  0  0  0  0  0  0  0  0
   22.4181   26.9173   36.7050 N   0  0  0  0  0  0  0  0  0  0  0  0
  1  2  1  0
  2  3  2  0
  2  4  1  0
  4  5  2  0
  5  6  1  0
  6  7  2  0
  7  8  1  0
  8  9  2  0
  9 10  1  0
 10 11  2  0
 11 12  1  0
 12 13  2  0
 13 14  1  0
  1 15  1  0
 15 16  2  0
 16 17  1  0
 17 18  2  0
 18 19  1  0
 19 20  1  0
 20 21  1  1
 21 22  1  0
 21 23  1  0
 21 24  1  0
 20 25  1  0
 25 26  2  0
 13  4  1  0
 26 15  1  0
 12  7  1  0
 25 18  1  0
M  END
>  <AAScore>  (1) 
26313.62684657585

>  <RootName>  (1) 
./4ZLY/04_DeltaGEst/trajectory_05/rank_00/lead_0318

$$$$
