confid_0
     RDKit          3D

 31 35  0  0  0  0  0  0  0  0999 V2000
   24.6900   26.1200   35.5300 N   0  0  0  0  0  0  0  0  0  0  0  0
   25.6600   25.6700   34.6600 C   0  0  0  0  0  0  0  0  0  0  0  0
   25.2400   25.0100   33.7200 O   0  0  0  0  0  0  0  0  0  0  0  0
   27.0300   26.2200   34.8800 C   0  0  0  0  0  0  0  0  0  0  0  0
   27.3500   26.7300   36.0700 N   0  0  0  0  0  0  0  0  0  0  0  0
   28.5700   27.1800   36.3300 N   0  0  0  0  0  0  0  0  0  0  0  0
   29.5300   27.1100   35.3900 C   0  0  0  0  0  0  0  0  0  0  0  0
   30.8300   27.5700   35.6500 C   0  0  0  0  0  0  0  0  0  0  0  0
   31.8500   27.5400   34.6900 C   0  0  0  0  0  0  0  0  0  0  0  0
   31.5100   27.1200   33.4000 C   0  0  0  0  0  0  0  0  0  0  0  0
   30.2200   26.6300   33.1100 C   0  0  0  0  0  0  0  0  0  0  0  0
   29.2400   26.6600   34.1000 C   0  0  0  0  0  0  0  0  0  0  0  0
   27.9300   26.2600   33.8100 C   0  0  0  0  0  0  0  0  0  0  0  0
   27.5200   25.7100   32.6100 N   0  0  0  0  0  0  0  0  0  0  0  0
   23.3095   26.3658   35.1848 C   0  0  0  0  0  0  0  0  0  0  0  0
   22.9671   26.3779   33.9236 N   0  0  0  0  0  0  0  0  0  0  0  0
   21.7187   26.5158   33.2246 C   0  0  0  0  0  0  0  0  0  0  0  0
   20.5622   26.0815   33.7092 C   0  0  0  0  0  0  0  0  0  0  0  0
   19.3612   25.3708   33.1531 C   0  0  0  0  0  0  0  0  0  0  0  0
   18.8684   24.9739   34.3925 O   0  0  0  0  0  0  0  0  0  0  0  0
   19.8749   25.7259   34.9868 C   0  0  1  0  0  0  0  0  0  0  0  0
   20.7807   24.9442   35.9380 C   0  0  0  0  0  0  0  0  0  0  0  0
   21.4593   25.9755   36.8070 C   0  0  0  0  0  0  0  0  0  0  0  0
   22.4191   26.7869   36.2980 C   0  0  0  0  0  0  0  0  0  0  0  0
   22.7403   28.1244   36.9283 C   0  0  0  0  0  0  0  0  0  0  0  0
   22.8845   28.0366   38.3364 O   0  0  0  0  0  0  0  0  0  0  0  0
   21.6575   28.2668   39.0251 C   0  0  0  0  0  0  0  0  0  0  0  0
   21.8554   27.8846   40.5102 C   0  0  0  0  0  0  0  0  0  0  0  0
   21.2900   29.7689   38.9977 C   0  0  0  0  0  0  0  0  0  0  0  0
   20.5768   27.5327   38.4573 O   0  0  0  0  0  0  0  0  0  0  0  0
   20.9135   26.1779   38.2063 C   0  0  0  0  0  0  0  0  0  0  0  0
  1  2  1  0
  2  3  2  0
  2  4  1  0
  4  5  2  0
  5  6  1  0
  6  7  2  0
  7  8  1  0
  8  9  2  0
  9 10  1  0
 10 11  2  0
 11 12  1  0
 12 13  2  0
 13 14  1  0
  1 15  1  0
 15 16  2  0
 16 17  1  0
 17 18  2  0
 18 19  1  0
 19 20  1  0
 20 21  1  0
 21 22  1  1
 22 23  1  0
 23 24  2  0
 24 25  1  0
 25 26  1  0
 26 27  1  0
 27 28  1  0
 27 29  1  0
 27 30  1  0
 30 31  1  0
 13  4  1  0
 24 15  1  0
 12  7  1  0
 21 18  1  0
 31 23  1  0
M  END
>  <AAScore>  (1) 
413080.2346849121

>  <RootName>  (1) 
./4ZLY/04_DeltaGEst/trajectory_02/rank_00/lead_0278

$$$$
