confid_8
     RDKit          3D

 29 32  0  0  0  0  0  0  0  0999 V2000
   24.5500   26.3900   36.2500 N   0  0  0  0  0  0  0  0  0  0  0  0
   25.6000   26.1300   35.4000 C   0  0  0  0  0  0  0  0  0  0  0  0
   25.4300   25.4300   34.4200 O   0  0  0  0  0  0  0  0  0  0  0  0
   26.9800   26.6300   35.7100 C   0  0  0  0  0  0  0  0  0  0  0  0
   27.3200   26.8200   36.9800 N   0  0  0  0  0  0  0  0  0  0  0  0
   28.4700   27.4000   37.3100 N   0  0  0  0  0  0  0  0  0  0  0  0
   29.4000   27.6300   36.3700 C   0  0  0  0  0  0  0  0  0  0  0  0
   30.6600   28.0500   36.8000 C   0  0  0  0  0  0  0  0  0  0  0  0
   31.5700   28.3600   35.7800 C   0  0  0  0  0  0  0  0  0  0  0  0
   31.3700   28.1000   34.4300 C   0  0  0  0  0  0  0  0  0  0  0  0
   30.1200   27.5900   34.0500 C   0  0  0  0  0  0  0  0  0  0  0  0
   29.1500   27.3400   35.0300 C   0  0  0  0  0  0  0  0  0  0  0  0
   27.8800   26.8900   34.6600 C   0  0  0  0  0  0  0  0  0  0  0  0
   27.4800   26.6100   33.3700 N   0  0  0  0  0  0  0  0  0  0  0  0
   30.9590   28.3551   38.1775 N   0  0  0  0  0  0  0  0  0  0  0  0
   32.2528   27.9769   38.7549 C   0  0  0  0  0  0  0  0  0  0  0  0
   33.0936   29.2357   39.0588 C   0  0  0  0  0  0  0  0  0  0  0  0
   32.2703   30.4710   39.0958 N   0  0  0  0  0  0  0  0  0  0  0  0
   33.0086   31.5892   39.7171 C   0  0  0  0  0  0  0  0  0  0  0  0
   34.0973   32.0841   38.7874 C   0  0  0  0  0  0  0  0  0  0  0  0
   33.7072   32.6106   37.5437 C   0  0  0  0  0  0  0  0  0  0  0  0
   34.6567   33.0917   36.6423 C   0  0  0  0  0  0  0  0  0  0  0  0
   36.0197   33.0372   36.9552 C   0  0  0  0  0  0  0  0  0  0  0  0
   37.0363   33.5989   36.0065 C   0  0  0  0  0  0  0  0  0  0  0  0
   36.4222   32.5247   38.1959 C   0  0  0  0  0  0  0  0  0  0  0  0
   35.4764   32.0392   39.1184 C   0  0  0  0  0  0  0  0  0  0  0  0
   35.9593   31.4994   40.4392 C   0  0  0  0  0  0  0  0  0  0  0  0
   30.9910   30.2268   39.7893 C   0  0  0  0  0  0  0  0  0  0  0  0
   30.1198   29.3031   38.9252 C   0  0  0  0  0  0  0  0  0  0  0  0
  1  2  1  0
  2  3  2  0
  2  4  1  0
  4  5  2  0
  5  6  1  0
  6  7  2  0
  7  8  1  0
  8  9  2  0
  9 10  1  0
 10 11  2  0
 11 12  1  0
 12 13  2  0
 13 14  1  0
  8 15  1  0
 15 16  1  0
 16 17  1  0
 17 18  1  0
 18 19  1  0
 19 20  1  0
 20 21  2  0
 21 22  1  0
 22 23  2  0
 23 24  1  0
 23 25  1  0
 25 26  2  0
 26 27  1  0
 18 28  1  0
 28 29  1  0
 13  4  1  0
 29 15  1  0
 12  7  1  0
 26 20  1  0
M  END
>  <AAScore>  (1) 
184.9433578875484

>  <RootName>  (1) 
./4ZLY/04_DeltaGEst/trajectory_01/rank_01/lead_0497

$$$$
