confid_16
     RDKit          3D

 29 32  0  0  0  0  0  0  0  0999 V2000
   24.5500   26.3900   36.2500 N   0  0  0  0  0  0  0  0  0  0  0  0
   25.6000   26.1300   35.4000 C   0  0  0  0  0  0  0  0  0  0  0  0
   25.4300   25.4300   34.4200 O   0  0  0  0  0  0  0  0  0  0  0  0
   26.9800   26.6300   35.7100 C   0  0  0  0  0  0  0  0  0  0  0  0
   27.3200   26.8200   36.9800 N   0  0  0  0  0  0  0  0  0  0  0  0
   28.4700   27.4000   37.3100 N   0  0  0  0  0  0  0  0  0  0  0  0
   29.4000   27.6300   36.3700 C   0  0  0  0  0  0  0  0  0  0  0  0
   30.6600   28.0500   36.8000 C   0  0  0  0  0  0  0  0  0  0  0  0
   31.5700   28.3600   35.7800 C   0  0  0  0  0  0  0  0  0  0  0  0
   31.3700   28.1000   34.4300 C   0  0  0  0  0  0  0  0  0  0  0  0
   30.1200   27.5900   34.0500 C   0  0  0  0  0  0  0  0  0  0  0  0
   29.1500   27.3400   35.0300 C   0  0  0  0  0  0  0  0  0  0  0  0
   27.8800   26.8900   34.6600 C   0  0  0  0  0  0  0  0  0  0  0  0
   27.4800   26.6100   33.3700 N   0  0  0  0  0  0  0  0  0  0  0  0
   30.9796   28.3227   38.1853 N   0  0  0  0  0  0  0  0  0  0  0  0
   30.0980   29.1659   39.0068 C   0  0  0  0  0  0  0  0  0  0  0  0
   30.8472   29.7742   40.2067 C   0  0  0  0  0  0  0  0  0  0  0  0
   32.2171   30.2149   39.8592 N   0  0  0  0  0  0  0  0  0  0  0  0
   32.3846   31.6442   39.5009 C   0  0  0  0  0  0  0  0  0  0  0  0
   31.3570   32.1533   38.5003 C   0  0  0  0  0  0  0  0  0  0  0  0
   30.3117   33.0424   38.8657 C   0  0  0  0  0  0  0  0  0  0  0  0
   29.3721   33.4168   37.8911 C   0  0  0  0  0  0  0  0  0  0  0  0
   29.4728   32.9531   36.6201 N   0  0  0  0  0  0  0  0  0  0  0  0
   30.4861   32.1384   36.2305 C   0  0  0  0  0  0  0  0  0  0  0  0
   30.5199   31.6312   34.8235 C   0  0  0  0  0  0  0  0  0  0  0  0
   31.4454   31.7302   37.1634 C   0  0  0  0  0  0  0  0  0  0  0  0
   30.2055   33.6440   40.2442 C   0  0  0  0  0  0  0  0  0  0  0  0
   33.0498   29.2587   39.0882 C   0  0  0  0  0  0  0  0  0  0  0  0
   32.2981   27.9745   38.7207 C   0  0  0  0  0  0  0  0  0  0  0  0
  1  2  1  0
  2  3  2  0
  2  4  1  0
  4  5  2  0
  5  6  1  0
  6  7  2  0
  7  8  1  0
  8  9  2  0
  9 10  1  0
 10 11  2  0
 11 12  1  0
 12 13  2  0
 13 14  1  0
  8 15  1  0
 15 16  1  0
 16 17  1  0
 17 18  1  0
 18 19  1  0
 19 20  1  0
 20 21  2  0
 21 22  1  0
 22 23  2  0
 23 24  1  0
 24 25  1  0
 24 26  2  0
 21 27  1  0
 18 28  1  0
 28 29  1  0
 13  4  1  0
 29 15  1  0
 12  7  1  0
 26 20  1  0
M  END
>  <AAScore>  (1) 
45.98821136292291

>  <RootName>  (1) 
./4ZLY/04_DeltaGEst/trajectory_01/rank_01/lead_0266

$$$$
