confid_15
     RDKit          3D

 29 33  0  0  0  0  0  0  0  0999 V2000
   25.3300   26.2600   34.7600 N   0  0  0  0  0  0  0  0  0  0  0  0
   26.1200   25.9200   33.6900 C   0  0  0  0  0  0  0  0  0  0  0  0
   25.6300   25.1100   32.9400 O   0  0  0  0  0  0  0  0  0  0  0  0
   27.5200   26.3800   33.4600 C   0  0  0  0  0  0  0  0  0  0  0  0
   28.1600   26.6300   34.6100 N   0  0  0  0  0  0  0  0  0  0  0  0
   29.4800   26.8500   34.5700 N   0  0  0  0  0  0  0  0  0  0  0  0
   30.1900   26.7800   33.4400 C   0  0  0  0  0  0  0  0  0  0  0  0
   31.5600   27.0500   33.5000 C   0  0  0  0  0  0  0  0  0  0  0  0
   32.2700   27.2400   32.3100 C   0  0  0  0  0  0  0  0  0  0  0  0
   31.6100   27.2500   31.0800 C   0  0  0  0  0  0  0  0  0  0  0  0
   30.2700   26.8700   31.0600 C   0  0  0  0  0  0  0  0  0  0  0  0
   29.5100   26.6900   32.2300 C   0  0  0  0  0  0  0  0  0  0  0  0
   28.1400   26.4100   32.2000 C   0  0  0  0  0  0  0  0  0  0  0  0
   27.4300   26.1300   31.0500 N   0  0  0  0  0  0  0  0  0  0  0  0
   24.2558   25.4434   35.2380 C   0  0  0  0  0  0  0  0  0  0  0  0
   24.5189   24.2393   35.6661 N   0  0  0  0  0  0  0  0  0  0  0  0
   23.5241   23.3159   36.1145 C   0  0  0  0  0  0  0  0  0  0  0  0
   22.5535   22.9418   35.2938 C   0  0  0  0  0  0  0  0  0  0  0  0
   21.2577   22.1926   35.3017 C   0  0  0  0  0  0  0  0  0  0  0  0
   20.9583   22.4471   33.9670 O   0  0  0  0  0  0  0  0  0  0  0  0
   22.1712   23.1180   33.8521 C   0  0  1  0  0  0  0  0  0  0  0  0
   22.0118   24.5774   33.3708 C   0  0  0  0  0  0  0  0  0  0  0  0
   21.8834   25.5942   34.4732 C   0  0  0  0  0  0  0  0  0  0  0  0
   22.8746   25.9952   35.2634 C   0  0  0  0  0  0  0  0  0  0  0  0
   22.4428   27.0420   36.1254 N   0  0  0  0  0  0  0  0  0  0  0  0
   23.2168   27.7051   37.1781 C   0  0  0  0  0  0  0  0  0  0  0  0
   23.5182   26.7462   38.3283 C   0  0  0  0  0  0  0  0  0  0  0  0
   21.0418   27.3432   35.8577 C   0  0  0  0  0  0  0  0  0  0  0  0
   20.6380   26.3841   34.7302 C   0  0  0  0  0  0  0  0  0  0  0  0
  1  2  1  0
  2  3  2  0
  2  4  1  0
  4  5  2  0
  5  6  1  0
  6  7  2  0
  7  8  1  0
  8  9  2  0
  9 10  1  0
 10 11  2  0
 11 12  1  0
 12 13  2  0
 13 14  1  0
  1 15  1  0
 15 16  2  0
 16 17  1  0
 17 18  2  0
 18 19  1  0
 19 20  1  0
 20 21  1  0
 21 22  1  1
 22 23  1  0
 23 24  2  0
 24 25  1  0
 25 26  1  0
 26 27  1  0
 25 28  1  0
 28 29  1  0
 13  4  1  0
 24 15  1  0
 12  7  1  0
 21 18  1  0
 29 23  1  0
M  END
>  <AAScore>  (1) 
3609.743409458785

>  <RootName>  (1) 
./4ZLY/04_DeltaGEst/trajectory_03/rank_00/lead_0471

$$$$
