confid_5
     RDKit          3D

 29 32  0  0  0  0  0  0  0  0999 V2000
   24.2000   26.2400   35.6900 N   0  0  0  0  0  0  0  0  0  0  0  0
   24.8500   26.2800   34.4800 C   0  0  0  0  0  0  0  0  0  0  0  0
   24.3100   25.7400   33.5400 O   0  0  0  0  0  0  0  0  0  0  0  0
   26.1800   26.9700   34.4700 C   0  0  0  0  0  0  0  0  0  0  0  0
   26.6500   27.6000   35.5500 N   0  0  0  0  0  0  0  0  0  0  0  0
   27.7900   28.2700   35.6200 N   0  0  0  0  0  0  0  0  0  0  0  0
   28.5400   28.3000   34.5100 C   0  0  0  0  0  0  0  0  0  0  0  0
   29.7700   28.9400   34.5600 C   0  0  0  0  0  0  0  0  0  0  0  0
   30.7000   28.8900   33.5000 C   0  0  0  0  0  0  0  0  0  0  0  0
   30.3700   28.1400   32.3700 C   0  0  0  0  0  0  0  0  0  0  0  0
   29.1200   27.5200   32.2800 C   0  0  0  0  0  0  0  0  0  0  0  0
   28.2100   27.6100   33.3300 C   0  0  0  0  0  0  0  0  0  0  0  0
   26.9700   26.9700   33.3100 C   0  0  0  0  0  0  0  0  0  0  0  0
   26.5300   26.2400   32.2200 N   0  0  0  0  0  0  0  0  0  0  0  0
   30.1538   29.6285   35.7737 N   0  0  0  0  0  0  0  0  0  0  0  0
   30.5590   28.7811   36.9081 C   0  0  0  0  0  0  0  0  0  0  0  0
   31.9232   29.2136   37.4605 C   0  0  0  0  0  0  0  0  0  0  0  0
   32.6891   30.0558   36.4389 C   0  0  0  0  0  0  0  0  0  0  0  0
   31.9456   31.2822   36.0618 N   0  0  0  0  0  0  0  0  0  0  0  0
   30.4659   31.0895   35.8349 C   0  0  0  0  0  0  0  0  0  0  0  0
   29.9072   31.8737   34.5905 C   0  0  0  0  0  0  0  0  0  0  0  0
   28.3734   31.8613   34.4739 C   0  0  0  0  0  0  0  0  0  0  0  0
   27.7293   32.2320   35.7424 N   0  0  0  0  0  0  0  0  0  0  0  0
   28.2304   31.6215   36.9810 C   0  0  0  0  0  0  0  0  0  0  0  0
   29.7551   31.7215   37.0622 C   0  0  0  0  0  0  0  0  0  0  0  0
   26.4221   32.8523   35.7460 C   0  0  0  0  0  0  0  0  0  0  0  0
   25.9337   33.2855   36.8251 O   0  0  0  0  0  0  0  0  0  0  0  0
   25.6241   33.0238   34.4873 C   0  0  0  0  0  0  0  0  0  0  0  0
   32.7009   32.0215   35.0311 C   0  0  0  0  0  0  0  0  0  0  0  0
  1  2  1  0
  2  3  2  0
  2  4  1  0
  4  5  2  0
  5  6  1  0
  6  7  2  0
  7  8  1  0
  8  9  2  0
  9 10  1  0
 10 11  2  0
 11 12  1  0
 12 13  2  0
 13 14  1  0
  8 15  1  0
 15 16  1  0
 16 17  1  0
 17 18  1  0
 18 19  1  0
 19 20  1  0
 20 21  1  0
 21 22  1  0
 22 23  1  0
 23 24  1  0
 24 25  1  0
 23 26  1  0
 26 27  2  0
 26 28  1  0
 19 29  1  0
 13  4  1  0
 20 15  1  0
 12  7  1  0
 25 20  1  0
M  END
>  <AAScore>  (1) 
-3.708018090459857

>  <RootName>  (1) 
./4ZLY/04_DeltaGEst/trajectory_04/rank_01/lead_0291

$$$$
