confid_12
     RDKit          3D

 27 30  0  0  0  0  0  0  0  0999 V2000
   24.4800   26.1000   36.1300 N   0  0  0  0  0  0  0  0  0  0  0  0
   25.2500   26.2500   34.9900 C   0  0  0  0  0  0  0  0  0  0  0  0
   24.7400   25.7600   33.9900 O   0  0  0  0  0  0  0  0  0  0  0  0
   26.5900   26.8900   34.9600 C   0  0  0  0  0  0  0  0  0  0  0  0
   27.0600   27.2400   36.1600 N   0  0  0  0  0  0  0  0  0  0  0  0
   28.3000   27.7100   36.2400 N   0  0  0  0  0  0  0  0  0  0  0  0
   29.0500   27.9600   35.1500 C   0  0  0  0  0  0  0  0  0  0  0  0
   30.3400   28.4900   35.2600 C   0  0  0  0  0  0  0  0  0  0  0  0
   31.1100   28.8200   34.1400 C   0  0  0  0  0  0  0  0  0  0  0  0
   30.5200   28.6700   32.8800 C   0  0  0  0  0  0  0  0  0  0  0  0
   29.2900   28.0200   32.7700 C   0  0  0  0  0  0  0  0  0  0  0  0
   28.5200   27.7100   33.8900 C   0  0  0  0  0  0  0  0  0  0  0  0
   27.2700   27.0800   33.7600 C   0  0  0  0  0  0  0  0  0  0  0  0
   26.7500   26.8800   32.4900 N   0  0  0  0  0  0  0  0  0  0  0  0
   23.4889   25.0738   36.3395 C   0  0  0  0  0  0  0  0  0  0  0  0
   23.4014   24.0094   35.5018 N   0  0  0  0  0  0  0  0  0  0  0  0
   22.4886   23.0233   35.6803 C   0  0  0  0  0  0  0  0  0  0  0  0
   21.5821   23.0613   36.7560 C   0  0  0  0  0  0  0  0  0  0  0  0
   20.6463   21.8807   36.9111 C   0  0  0  0  0  0  0  0  0  0  0  0
   19.2673   22.3089   37.1558 N   0  0  0  0  0  0  0  0  0  0  0  0
   18.9036   22.7910   38.4560 C   0  0  0  0  0  0  0  0  0  0  0  0
   17.6891   22.9084   38.7759 O   0  0  0  0  0  0  0  0  0  0  0  0
   19.9668   23.2137   39.4199 C   0  0  0  0  0  0  0  0  0  0  0  0
   20.7379   24.4074   38.8567 C   0  0  0  0  0  0  0  0  0  0  0  0
   21.6697   24.1496   37.6770 C   0  0  0  0  0  0  0  0  0  0  0  0
   22.6268   25.1525   37.4363 C   0  0  0  0  0  0  0  0  0  0  0  0
   18.2540   22.2197   36.1014 C   0  0  0  0  0  0  0  0  0  0  0  0
  1  2  1  0
  2  3  2  0
  2  4  1  0
  4  5  2  0
  5  6  1  0
  6  7  2  0
  7  8  1  0
  8  9  2  0
  9 10  1  0
 10 11  2  0
 11 12  1  0
 12 13  2  0
 13 14  1  0
  1 15  1  0
 15 16  2  0
 16 17  1  0
 17 18  2  0
 18 19  1  0
 19 20  1  0
 20 21  1  0
 21 22  2  0
 21 23  1  0
 23 24  1  0
 24 25  1  0
 25 26  2  0
 20 27  1  0
 13  4  1  0
 26 15  1  0
 12  7  1  0
 25 18  1  0
M  END
>  <AAScore>  (1) 
435.4297102701981

>  <RootName>  (1) 
./4ZLY/04_DeltaGEst/trajectory_00/rank_00/lead_0145

$$$$
