confid_10
     RDKit          3D

 28 31  0  0  0  0  0  0  0  0999 V2000
   24.5500   26.3900   36.2500 N   0  0  0  0  0  0  0  0  0  0  0  0
   25.6000   26.1300   35.4000 C   0  0  0  0  0  0  0  0  0  0  0  0
   25.4300   25.4300   34.4200 O   0  0  0  0  0  0  0  0  0  0  0  0
   26.9800   26.6300   35.7100 C   0  0  0  0  0  0  0  0  0  0  0  0
   27.3200   26.8200   36.9800 N   0  0  0  0  0  0  0  0  0  0  0  0
   28.4700   27.4000   37.3100 N   0  0  0  0  0  0  0  0  0  0  0  0
   29.4000   27.6300   36.3700 C   0  0  0  0  0  0  0  0  0  0  0  0
   30.6600   28.0500   36.8000 C   0  0  0  0  0  0  0  0  0  0  0  0
   31.5700   28.3600   35.7800 C   0  0  0  0  0  0  0  0  0  0  0  0
   31.3700   28.1000   34.4300 C   0  0  0  0  0  0  0  0  0  0  0  0
   30.1200   27.5900   34.0500 C   0  0  0  0  0  0  0  0  0  0  0  0
   29.1500   27.3400   35.0300 C   0  0  0  0  0  0  0  0  0  0  0  0
   27.8800   26.8900   34.6600 C   0  0  0  0  0  0  0  0  0  0  0  0
   27.4800   26.6100   33.3700 N   0  0  0  0  0  0  0  0  0  0  0  0
   23.4753   25.4760   36.5531 C   0  0  0  0  0  0  0  0  0  0  0  0
   22.3228   25.9314   36.9339 N   0  0  0  0  0  0  0  0  0  0  0  0
   21.6188   26.9919   36.2712 C   0  0  0  0  0  0  0  0  0  0  0  0
   21.1697   26.7467   35.0224 C   0  0  0  0  0  0  0  0  0  0  0  0
   21.9446   25.8194   34.1334 C   0  0  0  0  0  0  0  0  0  0  0  0
   21.6199   24.4628   34.5834 N   0  0  0  0  0  0  0  0  0  0  0  0
   20.1837   24.1224   34.7249 C   0  0  0  0  0  0  0  0  0  0  0  0
   19.2364   25.3116   34.3608 C   0  0  0  0  0  0  0  0  0  0  0  0
   19.7497   26.6087   34.8506 N   0  0  0  0  0  0  0  0  0  0  0  0
   18.8626   27.7654   34.9734 C   0  0  0  0  0  0  0  0  0  0  0  0
   22.6242   23.5951   35.1846 C   0  0  0  0  0  0  0  0  0  0  0  0
   23.5162   24.0588   36.1176 C   0  0  0  0  0  0  0  0  0  0  0  0
   24.5922   23.1826   36.7040 C   0  0  0  0  0  0  0  0  0  0  0  0
   22.5990   22.1345   34.8127 C   0  0  0  0  0  0  0  0  0  0  0  0
  1  2  1  0
  2  3  2  0
  2  4  1  0
  4  5  2  0
  5  6  1  0
  6  7  2  0
  7  8  1  0
  8  9  2  0
  9 10  1  0
 10 11  2  0
 11 12  1  0
 12 13  2  0
 13 14  1  0
  1 15  1  0
 15 16  2  0
 16 17  1  0
 17 18  2  0
 18 19  1  0
 19 20  1  0
 20 21  1  0
 21 22  1  0
 22 23  1  0
 23 24  1  0
 20 25  1  0
 25 26  2  0
 26 27  1  0
 25 28  1  0
 13  4  1  0
 26 15  1  0
 12  7  1  0
 23 18  1  0
M  END
>  <AAScore>  (1) 
625.3916178592199

>  <RootName>  (1) 
./4ZLY/04_DeltaGEst/trajectory_01/rank_00/lead_0433

$$$$
