confid_8
     RDKit          3D

 29 32  0  0  0  0  0  0  0  0999 V2000
   24.6900   26.1200   35.5300 N   0  0  0  0  0  0  0  0  0  0  0  0
   25.6600   25.6700   34.6600 C   0  0  0  0  0  0  0  0  0  0  0  0
   25.2400   25.0100   33.7200 O   0  0  0  0  0  0  0  0  0  0  0  0
   27.0300   26.2200   34.8800 C   0  0  0  0  0  0  0  0  0  0  0  0
   27.3500   26.7300   36.0700 N   0  0  0  0  0  0  0  0  0  0  0  0
   28.5700   27.1800   36.3300 N   0  0  0  0  0  0  0  0  0  0  0  0
   29.5300   27.1100   35.3900 C   0  0  0  0  0  0  0  0  0  0  0  0
   30.8300   27.5700   35.6500 C   0  0  0  0  0  0  0  0  0  0  0  0
   31.8500   27.5400   34.6900 C   0  0  0  0  0  0  0  0  0  0  0  0
   31.5100   27.1200   33.4000 C   0  0  0  0  0  0  0  0  0  0  0  0
   30.2200   26.6300   33.1100 C   0  0  0  0  0  0  0  0  0  0  0  0
   29.2400   26.6600   34.1000 C   0  0  0  0  0  0  0  0  0  0  0  0
   27.9300   26.2600   33.8100 C   0  0  0  0  0  0  0  0  0  0  0  0
   27.5200   25.7100   32.6100 N   0  0  0  0  0  0  0  0  0  0  0  0
   31.1745   28.0802   36.9973 C   0  0  0  0  0  0  0  0  0  0  0  0
   31.6349   29.3955   37.1542 C   0  0  0  0  0  0  0  0  0  0  0  0
   31.9140   29.9064   38.4315 C   0  0  0  0  0  0  0  0  0  0  0  0
   32.3112   31.3539   38.5943 C   0  0  0  0  0  0  0  0  0  0  0  0
   31.1706   32.2166   39.1681 C   0  0  0  0  0  0  0  0  0  0  0  0
   30.3039   31.4964   40.1206 N   0  0  0  0  0  0  0  0  0  0  0  0
   30.8570   30.7269   41.2062 C   0  0  0  0  0  0  0  0  0  0  0  0
   30.4523   30.9288   42.3824 O   0  0  0  0  0  0  0  0  0  0  0  0
   31.8865   29.6586   40.9585 C   0  0  0  0  0  0  0  0  0  0  0  0
   31.7305   29.0862   39.5685 C   0  0  0  0  0  0  0  0  0  0  0  0
   31.2929   27.7631   39.4012 C   0  0  0  0  0  0  0  0  0  0  0  0
   31.0204   27.2638   38.1270 C   0  0  0  0  0  0  0  0  0  0  0  0
   28.8454   31.5332   39.9551 C   0  0  0  0  0  0  0  0  0  0  0  0
   28.3607   30.2467   39.2779 C   0  0  0  0  0  0  0  0  0  0  0  0
   26.8506   30.2637   39.0658 C   0  0  0  0  0  0  0  0  0  0  0  0
  1  2  1  0
  2  3  2  0
  2  4  1  0
  4  5  2  0
  5  6  1  0
  6  7  2  0
  7  8  1  0
  8  9  2  0
  9 10  1  0
 10 11  2  0
 11 12  1  0
 12 13  2  0
 13 14  1  0
  8 15  1  0
 15 16  2  0
 16 17  1  0
 17 18  1  0
 18 19  1  0
 19 20  1  0
 20 21  1  0
 21 22  2  0
 21 23  1  0
 23 24  1  0
 24 25  1  0
 25 26  2  0
 20 27  1  0
 27 28  1  0
 28 29  1  0
 13  4  1  0
 26 15  1  0
 12  7  1  0
 24 17  2  0
M  END
>  <AAScore>  (1) 
-3.964833358840477

>  <RootName>  (1) 
./4ZLY/04_DeltaGEst/trajectory_02/rank_01/lead_0439

$$$$
