confid_9
     RDKit          3D

 28 31  0  0  0  0  0  0  0  0999 V2000
   24.5500   26.3900   36.2500 N   0  0  0  0  0  0  0  0  0  0  0  0
   25.6000   26.1300   35.4000 C   0  0  0  0  0  0  0  0  0  0  0  0
   25.4300   25.4300   34.4200 O   0  0  0  0  0  0  0  0  0  0  0  0
   26.9800   26.6300   35.7100 C   0  0  0  0  0  0  0  0  0  0  0  0
   27.3200   26.8200   36.9800 N   0  0  0  0  0  0  0  0  0  0  0  0
   28.4700   27.4000   37.3100 N   0  0  0  0  0  0  0  0  0  0  0  0
   29.4000   27.6300   36.3700 C   0  0  0  0  0  0  0  0  0  0  0  0
   30.6600   28.0500   36.8000 C   0  0  0  0  0  0  0  0  0  0  0  0
   31.5700   28.3600   35.7800 C   0  0  0  0  0  0  0  0  0  0  0  0
   31.3700   28.1000   34.4300 C   0  0  0  0  0  0  0  0  0  0  0  0
   30.1200   27.5900   34.0500 C   0  0  0  0  0  0  0  0  0  0  0  0
   29.1500   27.3400   35.0300 C   0  0  0  0  0  0  0  0  0  0  0  0
   27.8800   26.8900   34.6600 C   0  0  0  0  0  0  0  0  0  0  0  0
   27.4800   26.6100   33.3700 N   0  0  0  0  0  0  0  0  0  0  0  0
   31.0033   28.2813   38.2257 C   0  0  0  0  0  0  0  0  0  0  0  0
   30.7955   27.2725   39.1786 C   0  0  0  0  0  0  0  0  0  0  0  0
   31.1033   27.4894   40.5311 C   0  0  0  0  0  0  0  0  0  0  0  0
   30.7769   26.4302   41.5529 C   0  0  0  0  0  0  0  0  0  0  0  0
   29.5066   26.8058   42.3485 C   0  0  1  0  0  0  0  0  0  0  0  0
   29.5759   28.1747   42.9225 N   0  0  0  0  0  0  0  0  0  0  0  0
   28.3674   28.7598   43.5187 C   0  0  0  0  0  0  0  0  0  0  0  0
   30.8400   28.7303   43.3475 C   0  0  0  0  0  0  0  0  0  0  0  0
   31.0072   29.0309   44.5607 O   0  0  0  0  0  0  0  0  0  0  0  0
   31.9729   28.9932   42.3873 C   0  0  0  0  0  0  0  0  0  0  0  0
   31.6147   28.7388   40.9409 C   0  0  0  0  0  0  0  0  0  0  0  0
   31.8465   29.7353   39.9788 C   0  0  0  0  0  0  0  0  0  0  0  0
   31.5435   29.5090   38.6348 C   0  0  0  0  0  0  0  0  0  0  0  0
   28.2625   26.6244   41.4567 C   0  0  0  0  0  0  0  0  0  0  0  0
  1  2  1  0
  2  3  2  0
  2  4  1  0
  4  5  2  0
  5  6  1  0
  6  7  2  0
  7  8  1  0
  8  9  2  0
  9 10  1  0
 10 11  2  0
 11 12  1  0
 12 13  2  0
 13 14  1  0
  8 15  1  0
 15 16  2  0
 16 17  1  0
 17 18  1  0
 18 19  1  0
 19 20  1  0
 20 21  1  0
 20 22  1  0
 22 23  2  0
 22 24  1  0
 24 25  1  0
 25 26  1  0
 26 27  2  0
 19 28  1  6
 13  4  1  0
 27 15  1  0
 12  7  1  0
 25 17  2  0
M  END
>  <AAScore>  (1) 
40.080718439324095

>  <RootName>  (1) 
./4ZLY/04_DeltaGEst/trajectory_01/rank_01/lead_0157

$$$$
