confid_15
     RDKit          3D

 29 32  0  0  0  0  0  0  0  0999 V2000
   24.6900   26.1200   35.5300 N   0  0  0  0  0  0  0  0  0  0  0  0
   25.6600   25.6700   34.6600 C   0  0  0  0  0  0  0  0  0  0  0  0
   25.2400   25.0100   33.7200 O   0  0  0  0  0  0  0  0  0  0  0  0
   27.0300   26.2200   34.8800 C   0  0  0  0  0  0  0  0  0  0  0  0
   27.3500   26.7300   36.0700 N   0  0  0  0  0  0  0  0  0  0  0  0
   28.5700   27.1800   36.3300 N   0  0  0  0  0  0  0  0  0  0  0  0
   29.5300   27.1100   35.3900 C   0  0  0  0  0  0  0  0  0  0  0  0
   30.8300   27.5700   35.6500 C   0  0  0  0  0  0  0  0  0  0  0  0
   31.8500   27.5400   34.6900 C   0  0  0  0  0  0  0  0  0  0  0  0
   31.5100   27.1200   33.4000 C   0  0  0  0  0  0  0  0  0  0  0  0
   30.2200   26.6300   33.1100 C   0  0  0  0  0  0  0  0  0  0  0  0
   29.2400   26.6600   34.1000 C   0  0  0  0  0  0  0  0  0  0  0  0
   27.9300   26.2600   33.8100 C   0  0  0  0  0  0  0  0  0  0  0  0
   27.5200   25.7100   32.6100 N   0  0  0  0  0  0  0  0  0  0  0  0
   23.3456   25.5956   35.6023 C   0  0  0  0  0  0  0  0  0  0  0  0
   22.6992   25.2649   34.4562 N   0  0  0  0  0  0  0  0  0  0  0  0
   21.4179   24.8369   34.4355 C   0  0  0  0  0  0  0  0  0  0  0  0
   20.6785   24.7268   35.6196 C   0  0  0  0  0  0  0  0  0  0  0  0
   19.2010   24.3837   35.4860 C   0  0  0  0  0  0  0  0  0  0  0  0
   18.7666   23.2660   36.3502 N   0  0  0  0  0  0  0  0  0  0  0  0
   17.3234   23.0317   36.1744 C   0  0  0  0  0  0  0  0  0  0  0  0
   19.5375   22.0203   36.1305 C   0  0  0  0  0  0  0  0  0  0  0  0
   20.6526   21.9069   37.1755 C   0  0  0  0  0  0  0  0  0  0  0  0
   20.1957   22.4210   38.4175 O   0  0  0  0  0  0  0  0  0  0  0  0
   20.9809   23.5130   38.8613 C   0  0  0  0  0  0  0  0  0  0  0  0
   20.5865   24.8439   38.1784 C   0  0  0  0  0  0  0  0  0  0  0  0
   21.3142   25.0422   36.8563 C   0  0  0  0  0  0  0  0  0  0  0  0
   22.6765   25.4728   36.8434 C   0  0  0  0  0  0  0  0  0  0  0  0
   23.4162   25.8577   38.1115 C   0  0  0  0  0  0  0  0  0  0  0  0
  1  2  1  0
  2  3  2  0
  2  4  1  0
  4  5  2  0
  5  6  1  0
  6  7  2  0
  7  8  1  0
  8  9  2  0
  9 10  1  0
 10 11  2  0
 11 12  1  0
 12 13  2  0
 13 14  1  0
  1 15  1  0
 15 16  2  0
 16 17  1  0
 17 18  2  0
 18 19  1  0
 19 20  1  0
 20 21  1  0
 20 22  1  0
 22 23  1  0
 23 24  1  0
 24 25  1  0
 25 26  1  0
 26 27  1  0
 27 28  2  0
 28 29  1  0
 13  4  1  0
 28 15  1  0
 12  7  1  0
 27 18  1  0
M  END
>  <AAScore>  (1) 
4477.108674558067

>  <RootName>  (1) 
./4ZLY/04_DeltaGEst/trajectory_02/rank_00/lead_0296

$$$$
