confid_10
     RDKit          3D

 29 32  0  0  0  0  0  0  0  0999 V2000
   25.3300   26.2600   34.7600 N   0  0  0  0  0  0  0  0  0  0  0  0
   26.1200   25.9200   33.6900 C   0  0  0  0  0  0  0  0  0  0  0  0
   25.6300   25.1100   32.9400 O   0  0  0  0  0  0  0  0  0  0  0  0
   27.5200   26.3800   33.4600 C   0  0  0  0  0  0  0  0  0  0  0  0
   28.1600   26.6300   34.6100 N   0  0  0  0  0  0  0  0  0  0  0  0
   29.4800   26.8500   34.5700 N   0  0  0  0  0  0  0  0  0  0  0  0
   30.1900   26.7800   33.4400 C   0  0  0  0  0  0  0  0  0  0  0  0
   31.5600   27.0500   33.5000 C   0  0  0  0  0  0  0  0  0  0  0  0
   32.2700   27.2400   32.3100 C   0  0  0  0  0  0  0  0  0  0  0  0
   31.6100   27.2500   31.0800 C   0  0  0  0  0  0  0  0  0  0  0  0
   30.2700   26.8700   31.0600 C   0  0  0  0  0  0  0  0  0  0  0  0
   29.5100   26.6900   32.2300 C   0  0  0  0  0  0  0  0  0  0  0  0
   28.1400   26.4100   32.2000 C   0  0  0  0  0  0  0  0  0  0  0  0
   27.4300   26.1300   31.0500 N   0  0  0  0  0  0  0  0  0  0  0  0
   27.6063   24.8302   30.3932 C   0  0  0  0  0  0  0  0  0  0  0  0
   26.9410   24.8373   29.0194 C   0  0  0  0  0  0  0  0  0  0  0  0
   27.2348   26.1278   28.3641 N   0  0  0  0  0  0  0  0  0  0  0  0
   26.5391   27.2912   29.0067 C   0  0  1  0  0  0  0  0  0  0  0  0
   25.1141   27.5154   28.4087 C   0  0  0  0  0  0  0  0  0  0  0  0
   24.3930   28.4719   29.1425 O   0  0  0  0  0  0  0  0  0  0  0  0
   26.4083   27.0644   30.5558 C   0  0  0  0  0  0  0  0  0  0  0  0
   27.3971   28.5584   28.7775 C   0  0  0  0  0  0  0  0  0  0  0  0
   27.1421   26.0359   26.8915 C   0  0  0  0  0  0  0  0  0  0  0  0
   28.3844   25.3881   26.3405 C   0  0  0  0  0  0  0  0  0  0  0  0
   29.6244   26.0388   26.4586 C   0  0  0  0  0  0  0  0  0  0  0  0
   30.7833   25.4424   25.9514 C   0  0  0  0  0  0  0  0  0  0  0  0
   30.7140   24.1901   25.3328 C   0  0  0  0  0  0  0  0  0  0  0  0
   29.4842   23.5335   25.2158 C   0  0  0  0  0  0  0  0  0  0  0  0
   28.3222   24.1300   25.7152 C   0  0  0  0  0  0  0  0  0  0  0  0
  1  2  1  0
  2  3  2  0
  2  4  1  0
  4  5  2  0
  5  6  1  0
  6  7  2  0
  7  8  1  0
  8  9  2  0
  9 10  1  0
 10 11  2  0
 11 12  1  0
 12 13  2  0
 13 14  1  0
 14 15  1  0
 15 16  1  0
 16 17  1  0
 17 18  1  0
 18 19  1  0
 19 20  1  0
 18 21  1  0
 18 22  1  1
 17 23  1  0
 23 24  1  0
 24 25  2  0
 25 26  1  0
 26 27  2  0
 27 28  1  0
 28 29  2  0
 13  4  1  0
 21 14  1  0
 29 24  1  0
 12  7  1  0
M  END
>  <AAScore>  (1) 
55.53749955761695

>  <RootName>  (1) 
./4ZLY/04_DeltaGEst/trajectory_03/rank_01/lead_0311

$$$$
