confid_19
     RDKit          3D

 27 30  0  0  0  0  0  0  0  0999 V2000
   24.5700   26.8800   35.5900 N   0  0  0  0  0  0  0  0  0  0  0  0
   25.5000   26.4000   34.6900 C   0  0  0  0  0  0  0  0  0  0  0  0
   25.1700   25.5200   33.9100 O   0  0  0  0  0  0  0  0  0  0  0  0
   26.8400   27.0200   34.7400 C   0  0  0  0  0  0  0  0  0  0  0  0
   27.3800   27.2800   35.9400 N   0  0  0  0  0  0  0  0  0  0  0  0
   28.6200   27.7400   36.0300 N   0  0  0  0  0  0  0  0  0  0  0  0
   29.3800   28.0000   34.9600 C   0  0  0  0  0  0  0  0  0  0  0  0
   30.6700   28.5000   35.1300 C   0  0  0  0  0  0  0  0  0  0  0  0
   31.5400   28.6100   34.0300 C   0  0  0  0  0  0  0  0  0  0  0  0
   31.0900   28.2200   32.7700 C   0  0  0  0  0  0  0  0  0  0  0  0
   29.8000   27.7000   32.6000 C   0  0  0  0  0  0  0  0  0  0  0  0
   28.9600   27.5500   33.7100 C   0  0  0  0  0  0  0  0  0  0  0  0
   27.6600   27.0300   33.5900 C   0  0  0  0  0  0  0  0  0  0  0  0
   27.1600   26.7400   32.3400 N   0  0  0  0  0  0  0  0  0  0  0  0
   33.1572   29.2703   34.2405 S   0  0  0  0  0  6  0  0  0  0  0  0
   34.0642   28.7430   33.1644 O   0  0  0  0  0  0  0  0  0  0  0  0
   33.7010   28.8422   35.5761 O   0  0  0  0  0  0  0  0  0  0  0  0
   33.0662   31.0538   34.1066 C   0  0  2  0  0  0  0  0  0  0  0  0
   34.1121   31.8149   34.9157 C   0  0  1  0  0  0  0  0  0  0  0  0
   34.6081   33.1414   34.3362 C   0  0  0  0  0  0  0  0  0  0  0  0
   33.7599   33.9996   33.5952 C   0  0  0  0  0  0  0  0  0  0  0  0
   34.2339   35.2041   33.0745 C   0  0  0  0  0  0  0  0  0  0  0  0
   35.5577   35.5816   33.2755 C   0  0  0  0  0  0  0  0  0  0  0  0
   36.4165   34.7551   33.9968 C   0  0  0  0  0  0  0  0  0  0  0  0
   35.9613   33.5357   34.5298 C   0  0  0  0  0  0  0  0  0  0  0  0
   36.9349   32.6787   35.2977 C   0  0  0  0  0  0  0  0  0  0  0  0
   32.6633   31.7601   35.3984 C   0  0  0  0  0  0  0  0  0  0  0  0
  1  2  1  0
  2  3  2  0
  2  4  1  0
  4  5  2  0
  5  6  1  0
  6  7  2  0
  7  8  1  0
  8  9  2  0
  9 10  1  0
 10 11  2  0
 11 12  1  0
 12 13  2  0
 13 14  1  0
  9 15  1  0
 15 16  2  0
 15 17  2  0
 18 15  1  1
 18 19  1  0
 19 20  1  6
 20 21  2  0
 21 22  1  0
 22 23  2  0
 23 24  1  0
 24 25  2  0
 25 26  1  0
 19 27  1  0
 13  4  1  0
 27 18  1  0
 12  7  1  0
 25 20  1  0
M  END
>  <AAScore>  (1) 
-6.596171050396281

>  <RootName>  (1) 
./4ZLY/04_DeltaGEst/trajectory_05/rank_01/lead_0049

$$$$
