confid_0
     RDKit          3D

 27 30  0  0  0  0  0  0  0  0999 V2000
   24.2000   26.2400   35.6900 N   0  0  0  0  0  0  0  0  0  0  0  0
   24.8500   26.2800   34.4800 C   0  0  0  0  0  0  0  0  0  0  0  0
   24.3100   25.7400   33.5400 O   0  0  0  0  0  0  0  0  0  0  0  0
   26.1800   26.9700   34.4700 C   0  0  0  0  0  0  0  0  0  0  0  0
   26.6500   27.6000   35.5500 N   0  0  0  0  0  0  0  0  0  0  0  0
   27.7900   28.2700   35.6200 N   0  0  0  0  0  0  0  0  0  0  0  0
   28.5400   28.3000   34.5100 C   0  0  0  0  0  0  0  0  0  0  0  0
   29.7700   28.9400   34.5600 C   0  0  0  0  0  0  0  0  0  0  0  0
   30.7000   28.8900   33.5000 C   0  0  0  0  0  0  0  0  0  0  0  0
   30.3700   28.1400   32.3700 C   0  0  0  0  0  0  0  0  0  0  0  0
   29.1200   27.5200   32.2800 C   0  0  0  0  0  0  0  0  0  0  0  0
   28.2100   27.6100   33.3300 C   0  0  0  0  0  0  0  0  0  0  0  0
   26.9700   26.9700   33.3100 C   0  0  0  0  0  0  0  0  0  0  0  0
   26.5300   26.2400   32.2200 N   0  0  0  0  0  0  0  0  0  0  0  0
   23.2121   25.2449   36.0304 C   0  0  0  0  0  0  0  0  0  0  0  0
   23.2505   24.0299   35.4171 N   0  0  0  0  0  0  0  0  0  0  0  0
   22.3706   23.0402   35.7030 C   0  0  0  0  0  0  0  0  0  0  0  0
   21.4015   23.2287   36.6892 C   0  0  0  0  0  0  0  0  0  0  0  0
   20.4170   22.1349   37.0186 C   0  0  0  0  0  0  0  0  0  0  0  0
   19.0531   22.7290   37.3935 C   0  0  0  0  0  0  0  0  0  0  0  0
   19.2198   23.7809   38.4516 C   0  0  0  0  0  0  0  0  0  0  0  0
   18.2838   23.9993   39.2677 O   0  0  0  0  0  0  0  0  0  0  0  0
   20.4368   24.5487   38.5126 N   0  0  0  0  0  0  0  0  0  0  0  0
   20.8240   25.1462   39.7955 C   0  0  0  0  0  0  0  0  0  0  0  0
   21.3762   24.4343   37.4161 C   0  0  0  0  0  0  0  0  0  0  0  0
   22.2279   25.4986   37.0175 C   0  0  0  0  0  0  0  0  0  0  0  0
   22.0474   26.8962   37.5596 C   0  0  0  0  0  0  0  0  0  0  0  0
  1  2  1  0
  2  3  2  0
  2  4  1  0
  4  5  2  0
  5  6  1  0
  6  7  2  0
  7  8  1  0
  8  9  2  0
  9 10  1  0
 10 11  2  0
 11 12  1  0
 12 13  2  0
 13 14  1  0
  1 15  1  0
 15 16  2  0
 16 17  1  0
 17 18  2  0
 18 19  1  0
 19 20  1  0
 20 21  1  0
 21 22  2  0
 21 23  1  0
 23 24  1  0
 23 25  1  0
 25 26  2  0
 26 27  1  0
 13  4  1  0
 26 15  1  0
 12  7  1  0
 25 18  1  0
M  END
>  <AAScore>  (1) 
59629.20594264603

>  <RootName>  (1) 
./4ZLY/04_DeltaGEst/trajectory_04/rank_00/lead_0359

$$$$
