confid_5
     RDKit          3D

 29 32  0  0  0  0  0  0  0  0999 V2000
   24.4800   26.1000   36.1300 N   0  0  0  0  0  0  0  0  0  0  0  0
   25.2500   26.2500   34.9900 C   0  0  0  0  0  0  0  0  0  0  0  0
   24.7400   25.7600   33.9900 O   0  0  0  0  0  0  0  0  0  0  0  0
   26.5900   26.8900   34.9600 C   0  0  0  0  0  0  0  0  0  0  0  0
   27.0600   27.2400   36.1600 N   0  0  0  0  0  0  0  0  0  0  0  0
   28.3000   27.7100   36.2400 N   0  0  0  0  0  0  0  0  0  0  0  0
   29.0500   27.9600   35.1500 C   0  0  0  0  0  0  0  0  0  0  0  0
   30.3400   28.4900   35.2600 C   0  0  0  0  0  0  0  0  0  0  0  0
   31.1100   28.8200   34.1400 C   0  0  0  0  0  0  0  0  0  0  0  0
   30.5200   28.6700   32.8800 C   0  0  0  0  0  0  0  0  0  0  0  0
   29.2900   28.0200   32.7700 C   0  0  0  0  0  0  0  0  0  0  0  0
   28.5200   27.7100   33.8900 C   0  0  0  0  0  0  0  0  0  0  0  0
   27.2700   27.0800   33.7600 C   0  0  0  0  0  0  0  0  0  0  0  0
   26.7500   26.8800   32.4900 N   0  0  0  0  0  0  0  0  0  0  0  0
   23.5489   25.0299   36.3980 C   0  0  0  0  0  0  0  0  0  0  0  0
   22.7002   25.2218   37.3756 N   0  0  0  0  0  0  0  0  0  0  0  0
   21.7444   24.3056   37.9166 C   0  0  0  0  0  0  0  0  0  0  0  0
   21.2737   23.3091   37.1952 C   0  0  0  0  0  0  0  0  0  0  0  0
   20.8372   21.9032   37.4478 C   0  0  0  0  0  0  0  0  0  0  0  0
   21.0691   21.4778   36.1457 O   0  0  0  0  0  0  0  0  0  0  0  0
   21.3645   22.7957   35.7879 C   0  0  1  0  0  0  0  0  0  0  0  0
   20.2548   23.2384   34.7823 C   0  0  0  0  0  0  0  0  0  0  0  0
   20.1656   24.6895   34.2152 C   0  0  0  0  0  0  0  0  0  0  0  0
   21.4076   25.0488   33.3817 C   0  0  0  0  0  0  0  0  0  0  0  0
   19.9462   25.7327   35.3290 C   0  0  0  0  0  0  0  0  0  0  0  0
   18.9393   24.7428   33.2734 C   0  0  0  0  0  0  0  0  0  0  0  0
   22.6938   22.8689   35.2693 O   0  0  0  0  0  0  0  0  0  0  0  0
   23.7379   23.7019   35.7220 C   0  0  0  0  0  0  0  0  0  0  0  0
   24.9164   23.3359   35.4704 O   0  0  0  0  0  0  0  0  0  0  0  0
  1  2  1  0
  2  3  2  0
  2  4  1  0
  4  5  2  0
  5  6  1  0
  6  7  2  0
  7  8  1  0
  8  9  2  0
  9 10  1  0
 10 11  2  0
 11 12  1  0
 12 13  2  0
 13 14  1  0
  1 15  1  0
 15 16  2  0
 16 17  1  0
 17 18  2  0
 18 19  1  0
 19 20  1  0
 20 21  1  0
 21 22  1  6
 22 23  1  0
 23 24  1  0
 23 25  1  0
 23 26  1  0
 21 27  1  0
 27 28  1  0
 28 29  2  0
 13  4  1  0
 28 15  1  0
 12  7  1  0
 21 18  1  0
M  END
>  <AAScore>  (1) 
8835.193007661646

>  <RootName>  (1) 
./4ZLY/04_DeltaGEst/trajectory_00/rank_01/lead_0338

$$$$
