confid_14
     RDKit          3D

 28 31  0  0  0  0  0  0  0  0999 V2000
   24.2000   26.2400   35.6900 N   0  0  0  0  0  0  0  0  0  0  0  0
   24.8500   26.2800   34.4800 C   0  0  0  0  0  0  0  0  0  0  0  0
   24.3100   25.7400   33.5400 O   0  0  0  0  0  0  0  0  0  0  0  0
   26.1800   26.9700   34.4700 C   0  0  0  0  0  0  0  0  0  0  0  0
   26.6500   27.6000   35.5500 N   0  0  0  0  0  0  0  0  0  0  0  0
   27.7900   28.2700   35.6200 N   0  0  0  0  0  0  0  0  0  0  0  0
   28.5400   28.3000   34.5100 C   0  0  0  0  0  0  0  0  0  0  0  0
   29.7700   28.9400   34.5600 C   0  0  0  0  0  0  0  0  0  0  0  0
   30.7000   28.8900   33.5000 C   0  0  0  0  0  0  0  0  0  0  0  0
   30.3700   28.1400   32.3700 C   0  0  0  0  0  0  0  0  0  0  0  0
   29.1200   27.5200   32.2800 C   0  0  0  0  0  0  0  0  0  0  0  0
   28.2100   27.6100   33.3300 C   0  0  0  0  0  0  0  0  0  0  0  0
   26.9700   26.9700   33.3100 C   0  0  0  0  0  0  0  0  0  0  0  0
   26.5300   26.2400   32.2200 N   0  0  0  0  0  0  0  0  0  0  0  0
   30.1393   29.6738   35.7401 N   0  0  0  0  0  0  0  0  0  0  0  0
   30.7764   28.9163   36.8285 C   0  0  0  0  0  0  0  0  0  0  0  0
   31.1437   29.8129   38.0170 C   0  0  0  0  0  0  0  0  0  0  0  0
   31.9286   31.0476   37.5563 C   0  0  0  0  0  0  0  0  0  0  0  0
   31.3072   31.6999   36.3949 N   0  0  0  0  0  0  0  0  0  0  0  0
   30.0562   31.1504   35.8240 C   0  0  0  0  0  0  0  0  0  0  0  0
   29.4826   31.8883   34.5808 C   0  0  0  0  0  0  0  0  0  0  0  0
   28.2861   32.3607   35.4171 C   0  0  0  0  0  0  0  0  0  0  0  0
   26.9358   31.8238   34.9144 C   0  0  0  0  0  0  0  0  0  0  0  0
   28.2580   33.8845   35.6256 C   0  0  0  0  0  0  0  0  0  0  0  0
   28.8302   31.6019   36.6345 C   0  0  0  0  0  0  0  0  0  0  0  0
   32.0226   32.7975   35.8113 C   0  0  0  0  0  0  0  0  0  0  0  0
   32.0894   33.8954   36.4249 O   0  0  0  0  0  0  0  0  0  0  0  0
   32.7851   32.6158   34.5387 C   0  0  0  0  0  0  0  0  0  0  0  0
  1  2  1  0
  2  3  2  0
  2  4  1  0
  4  5  2  0
  5  6  1  0
  6  7  2  0
  7  8  1  0
  8  9  2  0
  9 10  1  0
 10 11  2  0
 11 12  1  0
 12 13  2  0
 13 14  1  0
  8 15  1  0
 15 16  1  0
 16 17  1  0
 17 18  1  0
 18 19  1  0
 19 20  1  0
 20 21  1  0
 21 22  1  0
 22 23  1  0
 22 24  1  0
 22 25  1  0
 19 26  1  0
 26 27  2  0
 26 28  1  0
 13  4  1  0
 20 15  1  0
 12  7  1  0
 25 20  1  0
M  END
>  <AAScore>  (1) 
-5.127769971388468

>  <RootName>  (1) 
./4ZLY/04_DeltaGEst/trajectory_04/rank_01/lead_0333

$$$$
