confid_7
     RDKit          3D

 30 33  0  0  0  0  0  0  0  0999 V2000
   24.5500   26.3900   36.2500 N   0  0  0  0  0  0  0  0  0  0  0  0
   25.6000   26.1300   35.4000 C   0  0  0  0  0  0  0  0  0  0  0  0
   25.4300   25.4300   34.4200 O   0  0  0  0  0  0  0  0  0  0  0  0
   26.9800   26.6300   35.7100 C   0  0  0  0  0  0  0  0  0  0  0  0
   27.3200   26.8200   36.9800 N   0  0  0  0  0  0  0  0  0  0  0  0
   28.4700   27.4000   37.3100 N   0  0  0  0  0  0  0  0  0  0  0  0
   29.4000   27.6300   36.3700 C   0  0  0  0  0  0  0  0  0  0  0  0
   30.6600   28.0500   36.8000 C   0  0  0  0  0  0  0  0  0  0  0  0
   31.5700   28.3600   35.7800 C   0  0  0  0  0  0  0  0  0  0  0  0
   31.3700   28.1000   34.4300 C   0  0  0  0  0  0  0  0  0  0  0  0
   30.1200   27.5900   34.0500 C   0  0  0  0  0  0  0  0  0  0  0  0
   29.1500   27.3400   35.0300 C   0  0  0  0  0  0  0  0  0  0  0  0
   27.8800   26.8900   34.6600 C   0  0  0  0  0  0  0  0  0  0  0  0
   27.4800   26.6100   33.3700 N   0  0  0  0  0  0  0  0  0  0  0  0
   23.1909   25.8810   36.0132 C   0  0  0  0  0  0  0  0  0  0  0  0
   22.3631   25.9498   37.3120 C   0  0  0  0  0  0  0  0  0  0  0  0
   20.8813   25.6784   37.0340 C   0  0  0  0  0  0  0  0  0  0  0  0
   20.3531   26.5939   36.0104 N   0  0  0  0  0  0  0  0  0  0  0  0
   18.9238   26.7034   35.8501 C   0  0  0  0  0  0  0  0  0  0  0  0
   18.1906   25.7226   36.1560 O   0  0  0  0  0  0  0  0  0  0  0  0
   18.2895   27.9512   35.2867 C   0  0  0  0  0  0  0  0  0  0  0  0
   16.9257   28.2425   35.9220 C   0  0  0  0  0  0  0  0  0  0  0  0
   16.3888   29.4974   35.4030 N   0  0  0  0  0  0  0  0  0  0  0  0
   15.6708   29.6626   34.2805 C   0  0  0  0  0  0  0  0  0  0  0  0
   15.4564   31.0146   34.1231 C   0  0  0  0  0  0  0  0  0  0  0  0
   14.7661   31.6600   32.9682 C   0  0  0  0  0  0  0  0  0  0  0  0
   16.0632   31.6995   35.1157 N   0  0  0  0  0  0  0  0  0  0  0  0
   16.6202   30.7368   35.8817 C   0  0  0  0  0  0  0  0  0  0  0  0
   21.2755   27.4353   35.2319 C   0  0  0  0  0  0  0  0  0  0  0  0
   22.5232   26.6367   34.8303 C   0  0  0  0  0  0  0  0  0  0  0  0
  1  2  1  0
  2  3  2  0
  2  4  1  0
  4  5  2  0
  5  6  1  0
  6  7  2  0
  7  8  1  0
  8  9  2  0
  9 10  1  0
 10 11  2  0
 11 12  1  0
 12 13  2  0
 13 14  1  0
  1 15  1  0
 15 16  1  0
 16 17  1  0
 17 18  1  0
 18 19  1  0
 19 20  2  0
 19 21  1  0
 21 22  1  0
 22 23  1  0
 23 24  1  0
 24 25  2  0
 25 26  1  0
 25 27  1  0
 27 28  2  0
 18 29  1  0
 29 30  1  0
 13  4  1  0
 30 15  1  0
 12  7  1  0
 28 23  1  0
M  END
>  <AAScore>  (1) 
683.3471823633655

>  <RootName>  (1) 
./4ZLY/04_DeltaGEst/trajectory_01/rank_00/lead_0405

$$$$
