confid_13
     RDKit          3D

 28 31  0  0  0  0  0  0  0  0999 V2000
   24.5500   26.3900   36.2500 N   0  0  0  0  0  0  0  0  0  0  0  0
   25.6000   26.1300   35.4000 C   0  0  0  0  0  0  0  0  0  0  0  0
   25.4300   25.4300   34.4200 O   0  0  0  0  0  0  0  0  0  0  0  0
   26.9800   26.6300   35.7100 C   0  0  0  0  0  0  0  0  0  0  0  0
   27.3200   26.8200   36.9800 N   0  0  0  0  0  0  0  0  0  0  0  0
   28.4700   27.4000   37.3100 N   0  0  0  0  0  0  0  0  0  0  0  0
   29.4000   27.6300   36.3700 C   0  0  0  0  0  0  0  0  0  0  0  0
   30.6600   28.0500   36.8000 C   0  0  0  0  0  0  0  0  0  0  0  0
   31.5700   28.3600   35.7800 C   0  0  0  0  0  0  0  0  0  0  0  0
   31.3700   28.1000   34.4300 C   0  0  0  0  0  0  0  0  0  0  0  0
   30.1200   27.5900   34.0500 C   0  0  0  0  0  0  0  0  0  0  0  0
   29.1500   27.3400   35.0300 C   0  0  0  0  0  0  0  0  0  0  0  0
   27.8800   26.8900   34.6600 C   0  0  0  0  0  0  0  0  0  0  0  0
   27.4800   26.6100   33.3700 N   0  0  0  0  0  0  0  0  0  0  0  0
   31.0008   28.2668   38.2213 C   0  0  0  0  0  0  0  0  0  0  0  0
   31.1833   27.1345   39.0309 C   0  0  0  0  0  0  0  0  0  0  0  0
   31.6313   27.2666   40.3457 C   0  0  0  0  0  0  0  0  0  0  0  0
   31.7988   26.1334   41.1407 O   0  0  0  0  0  0  0  0  0  0  0  0
   32.4420   26.1986   42.4116 C   0  0  0  0  0  0  0  0  0  0  0  0
   32.1297   27.4602   43.1115 N   0  0  0  0  0  0  0  0  0  0  0  0
   30.8416   27.4629   43.8411 C   0  0  0  0  0  0  0  0  0  0  0  0
   29.6028   27.4220   42.9403 C   0  0  0  0  0  0  0  0  0  0  0  0
   32.3894   28.6661   42.2936 C   0  0  0  0  0  0  0  0  0  0  0  0
   31.8920   28.5342   40.8756 C   0  0  0  0  0  0  0  0  0  0  0  0
   31.7179   29.6693   40.0743 C   0  0  0  0  0  0  0  0  0  0  0  0
   31.2421   29.5567   38.7614 C   0  0  0  0  0  0  0  0  0  0  0  0
   31.0210   30.7508   38.0562 O   0  0  0  0  0  0  0  0  0  0  0  0
   29.9269   30.9820   37.1733 C   0  0  0  0  0  0  0  0  0  0  0  0
  1  2  1  0
  2  3  2  0
  2  4  1  0
  4  5  2  0
  5  6  1  0
  6  7  2  0
  7  8  1  0
  8  9  2  0
  9 10  1  0
 10 11  2  0
 11 12  1  0
 12 13  2  0
 13 14  1  0
  8 15  1  0
 15 16  2  0
 16 17  1  0
 17 18  1  0
 18 19  1  0
 19 20  1  0
 20 21  1  0
 21 22  1  0
 20 23  1  0
 23 24  1  0
 24 25  1  0
 25 26  2  0
 26 27  1  0
 27 28  1  0
 13  4  1  0
 26 15  1  0
 12  7  1  0
 24 17  2  0
M  END
>  <AAScore>  (1) 
50.8216911969489

>  <RootName>  (1) 
./4ZLY/04_DeltaGEst/trajectory_01/rank_01/lead_0222

$$$$
