confid_18
     RDKit          3D

 30 34  0  0  0  0  0  0  0  0999 V2000
   25.3300   26.2600   34.7600 N   0  0  0  0  0  0  0  0  0  0  0  0
   26.1200   25.9200   33.6900 C   0  0  0  0  0  0  0  0  0  0  0  0
   25.6300   25.1100   32.9400 O   0  0  0  0  0  0  0  0  0  0  0  0
   27.5200   26.3800   33.4600 C   0  0  0  0  0  0  0  0  0  0  0  0
   28.1600   26.6300   34.6100 N   0  0  0  0  0  0  0  0  0  0  0  0
   29.4800   26.8500   34.5700 N   0  0  0  0  0  0  0  0  0  0  0  0
   30.1900   26.7800   33.4400 C   0  0  0  0  0  0  0  0  0  0  0  0
   31.5600   27.0500   33.5000 C   0  0  0  0  0  0  0  0  0  0  0  0
   32.2700   27.2400   32.3100 C   0  0  0  0  0  0  0  0  0  0  0  0
   31.6100   27.2500   31.0800 C   0  0  0  0  0  0  0  0  0  0  0  0
   30.2700   26.8700   31.0600 C   0  0  0  0  0  0  0  0  0  0  0  0
   29.5100   26.6900   32.2300 C   0  0  0  0  0  0  0  0  0  0  0  0
   28.1400   26.4100   32.2000 C   0  0  0  0  0  0  0  0  0  0  0  0
   27.4300   26.1300   31.0500 N   0  0  0  0  0  0  0  0  0  0  0  0
   23.9285   25.9471   34.8886 C   0  0  0  0  0  0  0  0  0  0  0  0
   23.1371   25.6299   33.8308 N   0  0  0  0  0  0  0  0  0  0  0  0
   21.9191   25.5188   34.3948 C   0  0  0  0  0  0  0  0  0  0  0  0
   20.6149   25.8820   33.8111 C   0  0  0  0  0  0  0  0  0  0  0  0
   19.9378   26.6899   34.8629 N   0  0  0  0  0  0  0  0  0  0  0  0
   20.7042   26.4709   36.1209 C   0  0  0  0  0  0  0  0  0  0  0  0
   21.9633   25.8316   35.6893 C   0  0  0  0  0  0  0  0  0  0  0  0
   23.2276   26.1213   36.0381 N   0  0  0  0  0  0  0  0  0  0  0  0
   23.6688   26.7864   37.2610 C   0  0  0  0  0  0  0  0  0  0  0  0
   18.4883   26.3904   34.9953 C   0  0  0  0  0  0  0  0  0  0  0  0
   17.7532   26.6575   33.6595 C   0  0  0  0  0  0  0  0  0  0  0  0
   16.2399   26.4716   33.8127 C   0  0  0  0  0  0  0  0  0  0  0  0
   15.7145   27.3781   34.8504 N   0  0  0  0  0  0  0  0  0  0  0  0
   16.3304   27.0689   36.1540 C   0  0  0  0  0  0  0  0  0  0  0  0
   17.8470   27.2782   36.0897 C   0  0  0  0  0  0  0  0  0  0  0  0
   14.2526   27.2412   34.9418 C   0  0  0  0  0  0  0  0  0  0  0  0
  1  2  1  0
  2  3  2  0
  2  4  1  0
  4  5  2  0
  5  6  1  0
  6  7  2  0
  7  8  1  0
  8  9  2  0
  9 10  1  0
 10 11  2  0
 11 12  1  0
 12 13  2  0
 13 14  1  0
  1 15  1  0
 15 16  2  0
 16 17  1  0
 17 18  1  0
 18 19  1  0
 19 20  1  0
 20 21  1  0
 21 22  1  0
 22 23  1  0
 19 24  1  0
 24 25  1  0
 25 26  1  0
 26 27  1  0
 27 28  1  0
 28 29  1  0
 27 30  1  0
 13  4  1  0
 22 15  1  0
 29 24  1  0
 12  7  1  0
 21 17  2  0
M  END
>  <AAScore>  (1) 
26551.432291905985

>  <RootName>  (1) 
./4ZLY/04_DeltaGEst/trajectory_03/rank_00/lead_0089

$$$$
