confid_1
     RDKit          3D

 31 35  0  0  0  0  0  0  0  0999 V2000
   24.5700   26.8800   35.5900 N   0  0  0  0  0  0  0  0  0  0  0  0
   25.5000   26.4000   34.6900 C   0  0  0  0  0  0  0  0  0  0  0  0
   25.1700   25.5200   33.9100 O   0  0  0  0  0  0  0  0  0  0  0  0
   26.8400   27.0200   34.7400 C   0  0  0  0  0  0  0  0  0  0  0  0
   27.3800   27.2800   35.9400 N   0  0  0  0  0  0  0  0  0  0  0  0
   28.6200   27.7400   36.0300 N   0  0  0  0  0  0  0  0  0  0  0  0
   29.3800   28.0000   34.9600 C   0  0  0  0  0  0  0  0  0  0  0  0
   30.6700   28.5000   35.1300 C   0  0  0  0  0  0  0  0  0  0  0  0
   31.5400   28.6100   34.0300 C   0  0  0  0  0  0  0  0  0  0  0  0
   31.0900   28.2200   32.7700 C   0  0  0  0  0  0  0  0  0  0  0  0
   29.8000   27.7000   32.6000 C   0  0  0  0  0  0  0  0  0  0  0  0
   28.9600   27.5500   33.7100 C   0  0  0  0  0  0  0  0  0  0  0  0
   27.6600   27.0300   33.5900 C   0  0  0  0  0  0  0  0  0  0  0  0
   27.1600   26.7400   32.3400 N   0  0  0  0  0  0  0  0  0  0  0  0
   23.3363   26.2185   35.9240 C   0  0  0  0  0  0  0  0  0  0  0  0
   22.3929   26.9307   36.4668 N   0  0  0  0  0  0  0  0  0  0  0  0
   21.1325   26.4402   36.9283 C   0  0  0  0  0  0  0  0  0  0  0  0
   20.0529   26.4689   36.1342 C   0  0  0  0  0  0  0  0  0  0  0  0
   20.1807   26.8895   34.6703 C   0  0  1  0  0  0  0  0  0  0  0  0
   21.0837   25.9101   33.8577 C   0  0  0  0  0  0  0  0  0  0  0  0
   21.1432   24.5671   34.4639 N   0  0  0  0  0  0  0  0  0  0  0  0
   19.9912   23.6702   34.3082 C   0  0  0  0  0  0  0  0  0  0  0  0
   20.3214   22.5103   33.3620 C   0  0  0  0  0  0  0  0  0  0  0  0
   22.0177   21.8228   33.5373 S   0  0  0  0  0  0  0  0  0  0  0  0
   22.4278   22.5148   35.1739 C   0  0  0  0  0  0  0  0  0  0  0  0
   22.3055   24.0184   35.1389 C   0  0  0  0  0  0  0  0  0  0  0  0
   23.2416   24.7429   35.7978 C   0  0  0  0  0  0  0  0  0  0  0  0
   18.8098   27.1214   33.9787 C   0  0  0  0  0  0  0  0  0  0  0  0
   17.6711   27.2310   34.9871 C   0  0  0  0  0  0  0  0  0  0  0  0
   17.6579   26.0699   35.7864 O   0  0  0  0  0  0  0  0  0  0  0  0
   18.7050   26.1213   36.7358 C   0  0  0  0  0  0  0  0  0  0  0  0
  1  2  1  0
  2  3  2  0
  2  4  1  0
  4  5  2  0
  5  6  1  0
  6  7  2  0
  7  8  1  0
  8  9  2  0
  9 10  1  0
 10 11  2  0
 11 12  1  0
 12 13  2  0
 13 14  1  0
  1 15  1  0
 15 16  2  0
 16 17  1  0
 17 18  2  0
 18 19  1  0
 19 20  1  6
 20 21  1  0
 21 22  1  0
 22 23  1  0
 23 24  1  0
 24 25  1  0
 25 26  1  0
 26 27  2  0
 19 28  1  0
 28 29  1  0
 29 30  1  0
 30 31  1  0
 13  4  1  0
 27 15  1  0
 12  7  1  0
 31 18  1  0
 26 21  1  0
M  END
>  <AAScore>  (1) 
1243.0929899678968

>  <RootName>  (1) 
./4ZLY/04_DeltaGEst/trajectory_05/rank_00/lead_0217

$$$$
