confid_12
     RDKit          3D

 29 33  0  0  0  0  0  0  0  0999 V2000
   24.5500   26.3900   36.2500 N   0  0  0  0  0  0  0  0  0  0  0  0
   25.6000   26.1300   35.4000 C   0  0  0  0  0  0  0  0  0  0  0  0
   25.4300   25.4300   34.4200 O   0  0  0  0  0  0  0  0  0  0  0  0
   26.9800   26.6300   35.7100 C   0  0  0  0  0  0  0  0  0  0  0  0
   27.3200   26.8200   36.9800 N   0  0  0  0  0  0  0  0  0  0  0  0
   28.4700   27.4000   37.3100 N   0  0  0  0  0  0  0  0  0  0  0  0
   29.4000   27.6300   36.3700 C   0  0  0  0  0  0  0  0  0  0  0  0
   30.6600   28.0500   36.8000 C   0  0  0  0  0  0  0  0  0  0  0  0
   31.5700   28.3600   35.7800 C   0  0  0  0  0  0  0  0  0  0  0  0
   31.3700   28.1000   34.4300 C   0  0  0  0  0  0  0  0  0  0  0  0
   30.1200   27.5900   34.0500 C   0  0  0  0  0  0  0  0  0  0  0  0
   29.1500   27.3400   35.0300 C   0  0  0  0  0  0  0  0  0  0  0  0
   27.8800   26.8900   34.6600 C   0  0  0  0  0  0  0  0  0  0  0  0
   27.4800   26.6100   33.3700 N   0  0  0  0  0  0  0  0  0  0  0  0
   23.2664   25.7493   36.1481 C   0  0  0  0  0  0  0  0  0  0  0  0
   23.1888   24.5289   35.6896 N   0  0  0  0  0  0  0  0  0  0  0  0
   21.9734   23.7853   35.5470 C   0  0  0  0  0  0  0  0  0  0  0  0
   20.9774   24.2644   34.8128 C   0  0  0  0  0  0  0  0  0  0  0  0
   19.5435   23.9735   34.4857 C   0  0  0  0  0  0  0  0  0  0  0  0
   19.3583   25.1161   33.7100 O   0  0  0  0  0  0  0  0  0  0  0  0
   20.7007   25.4323   33.9069 C   0  0  1  0  0  0  0  0  0  0  0  0
   20.8983   26.8363   34.5214 C   0  0  0  0  0  0  0  0  0  0  0  0
   21.0287   26.8609   36.0245 C   0  0  0  0  0  0  0  0  0  0  0  0
   22.0777   26.4365   36.7127 C   0  0  0  0  0  0  0  0  0  0  0  0
   21.9373   26.7977   38.1461 C   0  0  0  0  0  0  0  0  0  0  0  0
   20.5633   27.3159   38.2936 N   0  0  0  0  0  0  0  0  0  0  0  0
   20.0565   27.5303   36.9235 C   0  0  0  0  0  0  0  0  0  0  0  0
   19.6881   26.4485   39.1194 C   0  0  0  0  0  0  0  0  0  0  0  0
   19.5019   25.0171   38.5800 C   0  0  0  0  0  0  0  0  0  0  0  0
  1  2  1  0
  2  3  2  0
  2  4  1  0
  4  5  2  0
  5  6  1  0
  6  7  2  0
  7  8  1  0
  8  9  2  0
  9 10  1  0
 10 11  2  0
 11 12  1  0
 12 13  2  0
 13 14  1  0
  1 15  1  0
 15 16  2  0
 16 17  1  0
 17 18  2  0
 18 19  1  0
 19 20  1  0
 20 21  1  0
 21 22  1  1
 22 23  1  0
 23 24  2  0
 24 25  1  0
 25 26  1  0
 26 27  1  0
 26 28  1  0
 28 29  1  0
 13  4  1  0
 24 15  1  0
 12  7  1  0
 21 18  1  0
 27 23  1  0
M  END
>  <AAScore>  (1) 
6400.612806239133

>  <RootName>  (1) 
./4ZLY/04_DeltaGEst/trajectory_01/rank_00/lead_0178

$$$$
