confid_14
     RDKit          3D

 27 30  0  0  0  0  0  0  0  0999 V2000
   24.6900   26.1200   35.5300 N   0  0  0  0  0  0  0  0  0  0  0  0
   25.6600   25.6700   34.6600 C   0  0  0  0  0  0  0  0  0  0  0  0
   25.2400   25.0100   33.7200 O   0  0  0  0  0  0  0  0  0  0  0  0
   27.0300   26.2200   34.8800 C   0  0  0  0  0  0  0  0  0  0  0  0
   27.3500   26.7300   36.0700 N   0  0  0  0  0  0  0  0  0  0  0  0
   28.5700   27.1800   36.3300 N   0  0  0  0  0  0  0  0  0  0  0  0
   29.5300   27.1100   35.3900 C   0  0  0  0  0  0  0  0  0  0  0  0
   30.8300   27.5700   35.6500 C   0  0  0  0  0  0  0  0  0  0  0  0
   31.8500   27.5400   34.6900 C   0  0  0  0  0  0  0  0  0  0  0  0
   31.5100   27.1200   33.4000 C   0  0  0  0  0  0  0  0  0  0  0  0
   30.2200   26.6300   33.1100 C   0  0  0  0  0  0  0  0  0  0  0  0
   29.2400   26.6600   34.1000 C   0  0  0  0  0  0  0  0  0  0  0  0
   27.9300   26.2600   33.8100 C   0  0  0  0  0  0  0  0  0  0  0  0
   27.5200   25.7100   32.6100 N   0  0  0  0  0  0  0  0  0  0  0  0
   31.1796   28.0635   37.0084 C   0  0  0  0  0  0  0  0  0  0  0  0
   31.9481   29.2260   37.1805 C   0  0  0  0  0  0  0  0  0  0  0  0
   32.2745   29.6650   38.4707 C   0  0  0  0  0  0  0  0  0  0  0  0
   33.1059   30.9183   38.6287 C   0  0  0  0  0  0  0  0  0  0  0  0
   33.3887   31.2499   40.0352 N   0  0  0  0  0  0  0  0  0  0  0  0
   34.4638   32.1720   40.3279 C   0  0  0  0  0  0  0  0  0  0  0  0
   35.0274   32.7957   39.3871 O   0  0  0  0  0  0  0  0  0  0  0  0
   34.9394   32.4178   41.7285 C   0  0  0  0  0  0  0  0  0  0  0  0
   32.4129   30.8539   41.0604 C   0  0  0  0  0  0  0  0  0  0  0  0
   32.1693   29.3507   40.9832 C   0  0  0  0  0  0  0  0  0  0  0  0
   31.8079   28.9391   39.5836 C   0  0  0  0  0  0  0  0  0  0  0  0
   31.0559   27.7768   39.3691 C   0  0  0  0  0  0  0  0  0  0  0  0
   30.7613   27.3748   38.1057 N   0  0  0  0  0  0  0  0  0  0  0  0
  1  2  1  0
  2  3  2  0
  2  4  1  0
  4  5  2  0
  5  6  1  0
  6  7  2  0
  7  8  1  0
  8  9  2  0
  9 10  1  0
 10 11  2  0
 11 12  1  0
 12 13  2  0
 13 14  1  0
  8 15  1  0
 15 16  2  0
 16 17  1  0
 17 18  1  0
 18 19  1  0
 19 20  1  0
 20 21  2  0
 20 22  1  0
 19 23  1  0
 23 24  1  0
 24 25  1  0
 25 26  1  0
 26 27  2  0
 13  4  1  0
 27 15  1  0
 12  7  1  0
 25 17  2  0
M  END
>  <AAScore>  (1) 
9.032319093714213

>  <RootName>  (1) 
./4ZLY/04_DeltaGEst/trajectory_02/rank_01/lead_0491

$$$$
