confid_11
     RDKit          3D

 27 30  0  0  0  0  0  0  0  0999 V2000
   24.5500   26.3900   36.2500 N   0  0  0  0  0  0  0  0  0  0  0  0
   25.6000   26.1300   35.4000 C   0  0  0  0  0  0  0  0  0  0  0  0
   25.4300   25.4300   34.4200 O   0  0  0  0  0  0  0  0  0  0  0  0
   26.9800   26.6300   35.7100 C   0  0  0  0  0  0  0  0  0  0  0  0
   27.3200   26.8200   36.9800 N   0  0  0  0  0  0  0  0  0  0  0  0
   28.4700   27.4000   37.3100 N   0  0  0  0  0  0  0  0  0  0  0  0
   29.4000   27.6300   36.3700 C   0  0  0  0  0  0  0  0  0  0  0  0
   30.6600   28.0500   36.8000 C   0  0  0  0  0  0  0  0  0  0  0  0
   31.5700   28.3600   35.7800 C   0  0  0  0  0  0  0  0  0  0  0  0
   31.3700   28.1000   34.4300 C   0  0  0  0  0  0  0  0  0  0  0  0
   30.1200   27.5900   34.0500 C   0  0  0  0  0  0  0  0  0  0  0  0
   29.1500   27.3400   35.0300 C   0  0  0  0  0  0  0  0  0  0  0  0
   27.8800   26.8900   34.6600 C   0  0  0  0  0  0  0  0  0  0  0  0
   27.4800   26.6100   33.3700 N   0  0  0  0  0  0  0  0  0  0  0  0
   31.0000   28.3122   38.2241 C   0  0  0  0  0  0  0  0  0  0  0  0
   32.2935   28.0280   38.7186 C   0  0  0  0  0  0  0  0  0  0  0  0
   32.5593   28.3033   40.0582 C   0  0  0  0  0  0  0  0  0  0  0  0
   33.8405   28.0963   40.8158 C   0  0  0  0  0  0  0  0  0  0  0  0
   33.5080   28.5570   42.1693 N   0  0  0  0  0  0  0  0  0  0  0  0
   32.1557   29.0070   42.1785 C   0  0  0  0  0  0  0  0  0  0  0  0
   31.5664   29.4827   43.1851 O   0  0  0  0  0  0  0  0  0  0  0  0
   31.5866   28.8377   40.8673 C   0  0  0  0  0  0  0  0  0  0  0  0
   30.3169   29.1160   40.3771 C   0  0  0  0  0  0  0  0  0  0  0  0
   30.0574   28.8460   39.0658 N   0  0  0  0  0  0  0  0  0  0  0  0
   34.4470   28.6386   43.2873 C   0  0  0  0  0  0  0  0  0  0  0  0
   35.3814   29.8460   43.1449 C   0  0  0  0  0  0  0  0  0  0  0  0
   34.6278   31.1733   43.2004 C   0  0  0  0  0  0  0  0  0  0  0  0
  1  2  1  0
  2  3  2  0
  2  4  1  0
  4  5  2  0
  5  6  1  0
  6  7  2  0
  7  8  1  0
  8  9  2  0
  9 10  1  0
 10 11  2  0
 11 12  1  0
 12 13  2  0
 13 14  1  0
  8 15  1  0
 15 16  2  0
 16 17  1  0
 17 18  1  0
 18 19  1  0
 19 20  1  0
 20 21  2  0
 20 22  1  0
 22 23  1  0
 23 24  2  0
 19 25  1  0
 25 26  1  0
 26 27  1  0
 13  4  1  0
 24 15  1  0
 12  7  1  0
 22 17  2  0
M  END
>  <AAScore>  (1) 
1133.9854104785516

>  <RootName>  (1) 
./4ZLY/04_DeltaGEst/trajectory_01/rank_01/lead_0180

$$$$
