confid_14
     RDKit          3D

 29 32  0  0  0  0  0  0  0  0999 V2000
   24.6900   26.1200   35.5300 N   0  0  0  0  0  0  0  0  0  0  0  0
   25.6600   25.6700   34.6600 C   0  0  0  0  0  0  0  0  0  0  0  0
   25.2400   25.0100   33.7200 O   0  0  0  0  0  0  0  0  0  0  0  0
   27.0300   26.2200   34.8800 C   0  0  0  0  0  0  0  0  0  0  0  0
   27.3500   26.7300   36.0700 N   0  0  0  0  0  0  0  0  0  0  0  0
   28.5700   27.1800   36.3300 N   0  0  0  0  0  0  0  0  0  0  0  0
   29.5300   27.1100   35.3900 C   0  0  0  0  0  0  0  0  0  0  0  0
   30.8300   27.5700   35.6500 C   0  0  0  0  0  0  0  0  0  0  0  0
   31.8500   27.5400   34.6900 C   0  0  0  0  0  0  0  0  0  0  0  0
   31.5100   27.1200   33.4000 C   0  0  0  0  0  0  0  0  0  0  0  0
   30.2200   26.6300   33.1100 C   0  0  0  0  0  0  0  0  0  0  0  0
   29.2400   26.6600   34.1000 C   0  0  0  0  0  0  0  0  0  0  0  0
   27.9300   26.2600   33.8100 C   0  0  0  0  0  0  0  0  0  0  0  0
   27.5200   25.7100   32.6100 N   0  0  0  0  0  0  0  0  0  0  0  0
   23.2990   26.2641   35.1928 C   0  0  0  0  0  0  0  0  0  0  0  0
   22.3573   25.9581   36.1231 N   0  0  0  0  0  0  0  0  0  0  0  0
   21.0279   26.0695   35.8709 C   0  0  0  0  0  0  0  0  0  0  0  0
   20.5738   26.5312   34.6252 C   0  0  0  0  0  0  0  0  0  0  0  0
   19.0851   26.5957   34.3603 C   0  0  0  0  0  0  0  0  0  0  0  0
   18.7266   25.6065   33.3193 N   0  0  0  0  0  0  0  0  0  0  0  0
   17.6625   26.0801   32.4078 C   0  0  0  0  0  0  0  0  0  0  0  0
   18.1506   27.1856   31.4476 C   0  0  0  0  0  0  0  0  0  0  0  0
   19.4116   26.8183   30.6358 C   0  0  0  0  0  0  0  0  0  0  0  0
   20.5250   26.3474   31.4869 N   0  0  0  0  0  0  0  0  0  0  0  0
   21.5464   25.6643   30.6758 C   0  0  0  0  0  0  0  0  0  0  0  0
   21.1330   27.4314   32.2893 C   0  0  0  0  0  0  0  0  0  0  0  0
   21.5343   26.8958   33.6446 C   0  0  0  0  0  0  0  0  0  0  0  0
   22.8988   26.7504   33.9395 C   0  0  0  0  0  0  0  0  0  0  0  0
   18.3564   24.3158   33.9227 C   0  0  0  0  0  0  0  0  0  0  0  0
  1  2  1  0
  2  3  2  0
  2  4  1  0
  4  5  2  0
  5  6  1  0
  6  7  2  0
  7  8  1  0
  8  9  2  0
  9 10  1  0
 10 11  2  0
 11 12  1  0
 12 13  2  0
 13 14  1  0
  1 15  1  0
 15 16  2  0
 16 17  1  0
 17 18  2  0
 18 19  1  0
 19 20  1  0
 20 21  1  0
 21 22  1  0
 22 23  1  0
 23 24  1  0
 24 25  1  0
 24 26  1  0
 26 27  1  0
 27 28  2  0
 20 29  1  0
 13  4  1  0
 28 15  1  0
 12  7  1  0
 27 18  1  0
M  END
>  <AAScore>  (1) 
559.9868152529039

>  <RootName>  (1) 
./4ZLY/04_DeltaGEst/trajectory_02/rank_00/lead_0178

$$$$
