confid_9
     RDKit          3D

 29 33  0  0  0  0  0  0  0  0999 V2000
   24.5700   26.8800   35.5900 N   0  0  0  0  0  0  0  0  0  0  0  0
   25.5000   26.4000   34.6900 C   0  0  0  0  0  0  0  0  0  0  0  0
   25.1700   25.5200   33.9100 O   0  0  0  0  0  0  0  0  0  0  0  0
   26.8400   27.0200   34.7400 C   0  0  0  0  0  0  0  0  0  0  0  0
   27.3800   27.2800   35.9400 N   0  0  0  0  0  0  0  0  0  0  0  0
   28.6200   27.7400   36.0300 N   0  0  0  0  0  0  0  0  0  0  0  0
   29.3800   28.0000   34.9600 C   0  0  0  0  0  0  0  0  0  0  0  0
   30.6700   28.5000   35.1300 C   0  0  0  0  0  0  0  0  0  0  0  0
   31.5400   28.6100   34.0300 C   0  0  0  0  0  0  0  0  0  0  0  0
   31.0900   28.2200   32.7700 C   0  0  0  0  0  0  0  0  0  0  0  0
   29.8000   27.7000   32.6000 C   0  0  0  0  0  0  0  0  0  0  0  0
   28.9600   27.5500   33.7100 C   0  0  0  0  0  0  0  0  0  0  0  0
   27.6600   27.0300   33.5900 C   0  0  0  0  0  0  0  0  0  0  0  0
   27.1600   26.7400   32.3400 N   0  0  0  0  0  0  0  0  0  0  0  0
   23.1535   26.6990   35.4334 C   0  0  0  0  0  0  0  0  0  0  0  0
   22.3953   27.7646   35.3941 N   0  0  0  0  0  0  0  0  0  0  0  0
   20.9633   27.7841   35.2934 C   0  0  0  0  0  0  0  0  0  0  0  0
   20.2398   27.0259   36.0997 C   0  0  0  0  0  0  0  0  0  0  0  0
   20.2145   26.0788   37.1170 C   0  0  0  0  0  0  0  0  0  0  0  0
   20.9799   25.2078   38.0528 C   0  0  0  0  0  0  0  0  0  0  0  0
   22.2530   24.7713   37.4513 N   0  0  0  0  0  0  0  0  0  0  0  0
   23.2649   24.1732   38.3247 C   0  0  0  0  0  0  0  0  0  0  0  0
   22.8991   22.7259   38.6757 C   0  0  0  0  0  0  0  0  0  0  0  0
   22.9370   21.8907   37.5323 O   0  0  0  0  0  0  0  0  0  0  0  0
   21.7612   22.0259   36.7523 C   0  0  0  0  0  0  0  0  0  0  0  0
   21.9657   23.0212   35.6031 C   0  0  0  0  0  0  0  0  0  0  0  0
   22.3091   24.4250   36.0528 C   0  0  0  0  0  0  0  0  0  0  0  0
   22.6208   25.3480   35.1205 C   0  0  0  0  0  0  0  0  0  0  0  0
   19.0492   26.5236   36.6078 N   0  0  0  0  0  0  0  0  0  0  0  0
  1  2  1  0
  2  3  2  0
  2  4  1  0
  4  5  2  0
  5  6  1  0
  6  7  2  0
  7  8  1  0
  8  9  2  0
  9 10  1  0
 10 11  2  0
 11 12  1  0
 12 13  2  0
 13 14  1  0
  1 15  1  0
 15 16  2  0
 16 17  1  0
 17 18  2  0
 18 19  1  0
 19 20  1  0
 20 21  1  0
 21 22  1  0
 22 23  1  0
 23 24  1  0
 24 25  1  0
 25 26  1  0
 26 27  1  0
 27 28  2  0
 19 29  2  0
 13  4  1  0
 28 15  1  0
 12  7  1  0
 29 18  1  0
 27 21  1  0
M  END
>  <AAScore>  (1) 
3647.963251539517

>  <RootName>  (1) 
./4ZLY/04_DeltaGEst/trajectory_05/rank_00/lead_0096

$$$$
