confid_17
     RDKit          3D

 28 31  0  0  0  0  0  0  0  0999 V2000
   24.5500   26.3900   36.2500 N   0  0  0  0  0  0  0  0  0  0  0  0
   25.6000   26.1300   35.4000 C   0  0  0  0  0  0  0  0  0  0  0  0
   25.4300   25.4300   34.4200 O   0  0  0  0  0  0  0  0  0  0  0  0
   26.9800   26.6300   35.7100 C   0  0  0  0  0  0  0  0  0  0  0  0
   27.3200   26.8200   36.9800 N   0  0  0  0  0  0  0  0  0  0  0  0
   28.4700   27.4000   37.3100 N   0  0  0  0  0  0  0  0  0  0  0  0
   29.4000   27.6300   36.3700 C   0  0  0  0  0  0  0  0  0  0  0  0
   30.6600   28.0500   36.8000 C   0  0  0  0  0  0  0  0  0  0  0  0
   31.5700   28.3600   35.7800 C   0  0  0  0  0  0  0  0  0  0  0  0
   31.3700   28.1000   34.4300 C   0  0  0  0  0  0  0  0  0  0  0  0
   30.1200   27.5900   34.0500 C   0  0  0  0  0  0  0  0  0  0  0  0
   29.1500   27.3400   35.0300 C   0  0  0  0  0  0  0  0  0  0  0  0
   27.8800   26.8900   34.6600 C   0  0  0  0  0  0  0  0  0  0  0  0
   27.4800   26.6100   33.3700 N   0  0  0  0  0  0  0  0  0  0  0  0
   30.9724   28.2848   38.1820 N   0  0  0  0  0  0  0  0  0  0  0  0
   31.9910   27.4510   38.8338 C   0  0  0  0  0  0  0  0  0  0  0  0
   32.0621   27.7411   40.3376 C   0  0  0  0  0  0  0  0  0  0  0  0
   30.7025   27.8695   40.8841 N   0  0  0  0  0  0  0  0  0  0  0  0
   30.2699   27.0973   42.0241 C   0  0  0  0  0  0  0  0  0  0  0  0
   29.1918   27.3939   42.8413 C   0  0  0  0  0  0  0  0  0  0  0  0
   29.0863   26.3374   43.7286 C   0  0  0  0  0  0  0  0  0  0  0  0
   28.0399   26.2185   44.8004 C   0  0  0  0  0  0  0  0  0  0  0  0
   28.5395   26.8094   46.1139 C   0  0  0  0  0  0  0  0  0  0  0  0
   30.0623   25.4313   43.4907 N   0  0  0  0  0  0  0  0  0  0  0  0
   30.7749   25.8751   42.4374 C   0  0  0  0  0  0  0  0  0  0  0  0
   30.2381   24.1338   44.1410 C   0  0  0  0  0  0  0  0  0  0  0  0
   29.7601   28.8086   40.2523 C   0  0  0  0  0  0  0  0  0  0  0  0
   30.3037   29.3569   38.9267 C   0  0  0  0  0  0  0  0  0  0  0  0
  1  2  1  0
  2  3  2  0
  2  4  1  0
  4  5  2  0
  5  6  1  0
  6  7  2  0
  7  8  1  0
  8  9  2  0
  9 10  1  0
 10 11  2  0
 11 12  1  0
 12 13  2  0
 13 14  1  0
  8 15  1  0
 15 16  1  0
 16 17  1  0
 17 18  1  0
 18 19  1  0
 19 20  1  0
 20 21  2  0
 21 22  1  0
 22 23  1  0
 21 24  1  0
 24 25  1  0
 24 26  1  0
 18 27  1  0
 27 28  1  0
 13  4  1  0
 28 15  1  0
 12  7  1  0
 25 19  2  0
M  END
>  <AAScore>  (1) 
46.48976107511376

>  <RootName>  (1) 
./4ZLY/04_DeltaGEst/trajectory_01/rank_01/lead_0347

$$$$
