confid_8
     RDKit          3D

 27 30  0  0  0  0  0  0  0  0999 V2000
   24.6900   26.1200   35.5300 N   0  0  0  0  0  0  0  0  0  0  0  0
   25.6600   25.6700   34.6600 C   0  0  0  0  0  0  0  0  0  0  0  0
   25.2400   25.0100   33.7200 O   0  0  0  0  0  0  0  0  0  0  0  0
   27.0300   26.2200   34.8800 C   0  0  0  0  0  0  0  0  0  0  0  0
   27.3500   26.7300   36.0700 N   0  0  0  0  0  0  0  0  0  0  0  0
   28.5700   27.1800   36.3300 N   0  0  0  0  0  0  0  0  0  0  0  0
   29.5300   27.1100   35.3900 C   0  0  0  0  0  0  0  0  0  0  0  0
   30.8300   27.5700   35.6500 C   0  0  0  0  0  0  0  0  0  0  0  0
   31.8500   27.5400   34.6900 C   0  0  0  0  0  0  0  0  0  0  0  0
   31.5100   27.1200   33.4000 C   0  0  0  0  0  0  0  0  0  0  0  0
   30.2200   26.6300   33.1100 C   0  0  0  0  0  0  0  0  0  0  0  0
   29.2400   26.6600   34.1000 C   0  0  0  0  0  0  0  0  0  0  0  0
   27.9300   26.2600   33.8100 C   0  0  0  0  0  0  0  0  0  0  0  0
   27.5200   25.7100   32.6100 N   0  0  0  0  0  0  0  0  0  0  0  0
   31.1872   28.0872   36.9915 C   0  0  0  0  0  0  0  0  0  0  0  0
   32.2686   27.6425   37.7474 C   0  0  0  0  0  0  0  0  0  0  0  0
   32.1371   28.2812   38.9620 C   0  0  0  0  0  0  0  0  0  0  0  0
   32.4434   27.8182   40.3330 C   0  0  0  0  0  0  0  0  0  0  0  0
   31.1376   28.1726   41.1046 C   0  0  2  0  0  0  0  0  0  0  0  0
   31.4636   28.7344   42.3295 F   0  0  0  0  0  0  0  0  0  0  0  0
   30.2592   26.9209   41.3594 C   0  0  0  0  0  0  0  0  0  0  0  0
   29.9494   26.2000   40.0954 N   0  0  0  0  0  0  0  0  0  0  0  0
   28.5046   26.2031   39.8073 C   0  0  0  0  0  0  0  0  0  0  0  0
   30.4272   24.8070   40.1392 C   0  0  0  0  0  0  0  0  0  0  0  0
   30.3996   29.2301   40.2341 C   0  0  0  0  0  0  0  0  0  0  0  0
   31.0268   29.0405   38.9089 C   0  0  0  0  0  0  0  0  0  0  0  0
   30.4151   28.9293   37.7187 N   0  0  0  0  0  0  0  0  0  0  0  0
  1  2  1  0
  2  3  2  0
  2  4  1  0
  4  5  2  0
  5  6  1  0
  6  7  2  0
  7  8  1  0
  8  9  2  0
  9 10  1  0
 10 11  2  0
 11 12  1  0
 12 13  2  0
 13 14  1  0
  8 15  1  0
 15 16  2  0
 16 17  1  0
 17 18  1  0
 18 19  1  0
 19 20  1  1
 19 21  1  0
 21 22  1  0
 22 23  1  0
 22 24  1  0
 19 25  1  0
 25 26  1  0
 26 27  1  0
 13  4  1  0
 27 15  1  0
 12  7  1  0
 26 17  2  0
M  END
>  <AAScore>  (1) 
117.20054938997822

>  <RootName>  (1) 
./4ZLY/04_DeltaGEst/trajectory_02/rank_01/lead_0445

$$$$
