confid_16
     RDKit          3D

 27 30  0  0  0  0  0  0  0  0999 V2000
   24.5500   26.3900   36.2500 N   0  0  0  0  0  0  0  0  0  0  0  0
   25.6000   26.1300   35.4000 C   0  0  0  0  0  0  0  0  0  0  0  0
   25.4300   25.4300   34.4200 O   0  0  0  0  0  0  0  0  0  0  0  0
   26.9800   26.6300   35.7100 C   0  0  0  0  0  0  0  0  0  0  0  0
   27.3200   26.8200   36.9800 N   0  0  0  0  0  0  0  0  0  0  0  0
   28.4700   27.4000   37.3100 N   0  0  0  0  0  0  0  0  0  0  0  0
   29.4000   27.6300   36.3700 C   0  0  0  0  0  0  0  0  0  0  0  0
   30.6600   28.0500   36.8000 C   0  0  0  0  0  0  0  0  0  0  0  0
   31.5700   28.3600   35.7800 C   0  0  0  0  0  0  0  0  0  0  0  0
   31.3700   28.1000   34.4300 C   0  0  0  0  0  0  0  0  0  0  0  0
   30.1200   27.5900   34.0500 C   0  0  0  0  0  0  0  0  0  0  0  0
   29.1500   27.3400   35.0300 C   0  0  0  0  0  0  0  0  0  0  0  0
   27.8800   26.8900   34.6600 C   0  0  0  0  0  0  0  0  0  0  0  0
   27.4800   26.6100   33.3700 N   0  0  0  0  0  0  0  0  0  0  0  0
   31.0063   28.2789   38.2262 C   0  0  0  0  0  0  0  0  0  0  0  0
   30.8018   27.2796   39.1831 C   0  0  0  0  0  0  0  0  0  0  0  0
   31.1341   27.4829   40.5360 C   0  0  0  0  0  0  0  0  0  0  0  0
   30.8894   26.3217   41.4890 C   0  0  0  0  0  0  0  0  0  0  0  0
   32.1157   25.5997   41.8950 N   0  0  0  0  0  0  0  0  0  0  0  0
   32.6720   24.8255   40.7720 C   0  0  0  0  0  0  0  0  0  0  0  0
   33.1630   26.4500   42.4967 C   0  0  0  0  0  0  0  0  0  0  0  0
   32.6729   27.2251   43.7327 C   0  0  0  0  0  0  0  0  0  0  0  0
   31.8179   28.4739   43.4390 C   0  0  0  0  0  0  0  0  0  0  0  0
   32.1390   29.0930   42.1964 O   0  0  0  0  0  0  0  0  0  0  0  0
   31.7076   28.7384   40.9033 C   0  0  0  0  0  0  0  0  0  0  0  0
   31.9032   29.6762   39.9374 N   0  0  0  0  0  0  0  0  0  0  0  0
   31.5737   29.4859   38.6365 C   0  0  0  0  0  0  0  0  0  0  0  0
  1  2  1  0
  2  3  2  0
  2  4  1  0
  4  5  2  0
  5  6  1  0
  6  7  2  0
  7  8  1  0
  8  9  2  0
  9 10  1  0
 10 11  2  0
 11 12  1  0
 12 13  2  0
 13 14  1  0
  8 15  1  0
 15 16  2  0
 16 17  1  0
 17 18  1  0
 18 19  1  0
 19 20  1  0
 19 21  1  0
 21 22  1  0
 22 23  1  0
 23 24  1  0
 24 25  1  0
 25 26  1  0
 26 27  2  0
 13  4  1  0
 27 15  1  0
 12  7  1  0
 25 17  2  0
M  END
>  <AAScore>  (1) 
40.34794360241746

>  <RootName>  (1) 
./4ZLY/04_DeltaGEst/trajectory_01/rank_01/lead_0142

$$$$
