confid_5
     RDKit          3D

 27 30  0  0  0  0  0  0  0  0999 V2000
   24.6900   26.1200   35.5300 N   0  0  0  0  0  0  0  0  0  0  0  0
   25.6600   25.6700   34.6600 C   0  0  0  0  0  0  0  0  0  0  0  0
   25.2400   25.0100   33.7200 O   0  0  0  0  0  0  0  0  0  0  0  0
   27.0300   26.2200   34.8800 C   0  0  0  0  0  0  0  0  0  0  0  0
   27.3500   26.7300   36.0700 N   0  0  0  0  0  0  0  0  0  0  0  0
   28.5700   27.1800   36.3300 N   0  0  0  0  0  0  0  0  0  0  0  0
   29.5300   27.1100   35.3900 C   0  0  0  0  0  0  0  0  0  0  0  0
   30.8300   27.5700   35.6500 C   0  0  0  0  0  0  0  0  0  0  0  0
   31.8500   27.5400   34.6900 C   0  0  0  0  0  0  0  0  0  0  0  0
   31.5100   27.1200   33.4000 C   0  0  0  0  0  0  0  0  0  0  0  0
   30.2200   26.6300   33.1100 C   0  0  0  0  0  0  0  0  0  0  0  0
   29.2400   26.6600   34.1000 C   0  0  0  0  0  0  0  0  0  0  0  0
   27.9300   26.2600   33.8100 C   0  0  0  0  0  0  0  0  0  0  0  0
   27.5200   25.7100   32.6100 N   0  0  0  0  0  0  0  0  0  0  0  0
   23.2756   25.8952   35.3781 C   0  0  0  0  0  0  0  0  0  0  0  0
   22.5375   25.5509   36.4999 N   0  0  0  0  0  0  0  0  0  0  0  0
   21.1814   25.3369   36.4818 C   0  0  0  0  0  0  0  0  0  0  0  0
   20.5618   25.5020   35.2633 C   0  0  0  0  0  0  0  0  0  0  0  0
   19.2988   25.4882   34.5778 O   0  0  0  0  0  0  0  0  0  0  0  0
   20.0163   25.8106   33.4355 C   0  0  1  0  0  0  0  0  0  0  0  0
   19.5878   27.1199   32.8062 C   0  0  0  0  0  0  0  0  0  0  0  0
   19.5770   27.1770   31.5449 O   0  0  0  0  0  0  0  0  0  0  0  0
   19.1634   28.2775   33.5662 N   0  0  0  0  0  0  0  0  0  0  0  0
   18.3051   29.2664   32.9060 C   0  0  0  0  0  0  0  0  0  0  0  0
   19.6247   28.5257   34.9369 C   0  0  0  0  0  0  0  0  0  0  0  0
   21.2698   25.8664   34.1182 C   0  0  0  0  0  0  0  0  0  0  0  0
   22.6324   26.0827   34.1164 C   0  0  0  0  0  0  0  0  0  0  0  0
  1  2  1  0
  2  3  2  0
  2  4  1  0
  4  5  2  0
  5  6  1  0
  6  7  2  0
  7  8  1  0
  8  9  2  0
  9 10  1  0
 10 11  2  0
 11 12  1  0
 12 13  2  0
 13 14  1  0
  1 15  1  0
 15 16  2  0
 16 17  1  0
 17 18  2  0
 18 19  1  0
 19 20  1  0
 20 21  1  1
 21 22  2  0
 21 23  1  0
 23 24  1  0
 23 25  1  0
 20 26  1  0
 26 27  2  0
 13  4  1  0
 27 15  1  0
 12  7  1  0
 26 18  1  0
M  END
>  <AAScore>  (1) 
1071.7222340058215

>  <RootName>  (1) 
./4ZLY/04_DeltaGEst/trajectory_02/rank_00/lead_0311

$$$$
