confid_5
     RDKit          3D

 27 30  0  0  0  0  0  0  0  0999 V2000
   24.5700   26.8800   35.5900 N   0  0  0  0  0  0  0  0  0  0  0  0
   25.5000   26.4000   34.6900 C   0  0  0  0  0  0  0  0  0  0  0  0
   25.1700   25.5200   33.9100 O   0  0  0  0  0  0  0  0  0  0  0  0
   26.8400   27.0200   34.7400 C   0  0  0  0  0  0  0  0  0  0  0  0
   27.3800   27.2800   35.9400 N   0  0  0  0  0  0  0  0  0  0  0  0
   28.6200   27.7400   36.0300 N   0  0  0  0  0  0  0  0  0  0  0  0
   29.3800   28.0000   34.9600 C   0  0  0  0  0  0  0  0  0  0  0  0
   30.6700   28.5000   35.1300 C   0  0  0  0  0  0  0  0  0  0  0  0
   31.5400   28.6100   34.0300 C   0  0  0  0  0  0  0  0  0  0  0  0
   31.0900   28.2200   32.7700 C   0  0  0  0  0  0  0  0  0  0  0  0
   29.8000   27.7000   32.6000 C   0  0  0  0  0  0  0  0  0  0  0  0
   28.9600   27.5500   33.7100 C   0  0  0  0  0  0  0  0  0  0  0  0
   27.6600   27.0300   33.5900 C   0  0  0  0  0  0  0  0  0  0  0  0
   27.1600   26.7400   32.3400 N   0  0  0  0  0  0  0  0  0  0  0  0
   23.3536   26.2043   35.9504 C   0  0  0  0  0  0  0  0  0  0  0  0
   23.1185   24.8991   35.5366 N   0  0  0  0  0  0  0  0  0  0  0  0
   21.9797   24.2104   35.8766 C   0  0  0  0  0  0  0  0  0  0  0  0
   21.0809   24.8962   36.6610 C   0  0  0  0  0  0  0  0  0  0  0  0
   19.8106   24.9295   37.3803 C   0  0  0  0  0  0  0  0  0  0  0  0
   18.7071   23.9509   37.6200 C   0  0  0  0  0  0  0  0  0  0  0  0
   18.7743   23.4407   39.0044 N   0  0  0  0  0  0  0  0  0  0  0  0
   19.8265   22.4062   39.1427 C   0  0  0  0  0  0  0  0  0  0  0  0
   20.3756   22.3866   40.5672 C   0  0  0  0  0  0  0  0  0  0  0  0
   17.4607   22.9014   39.4003 C   0  0  0  0  0  0  0  0  0  0  0  0
   20.0712   26.1834   37.7806 C   0  0  0  0  0  0  0  0  0  0  0  0
   21.3337   26.1515   37.0511 C   0  0  0  0  0  0  0  0  0  0  0  0
   22.4362   26.8598   36.7424 N   0  0  0  0  0  0  0  0  0  0  0  0
  1  2  1  0
  2  3  2  0
  2  4  1  0
  4  5  2  0
  5  6  1  0
  6  7  2  0
  7  8  1  0
  8  9  2  0
  9 10  1  0
 10 11  2  0
 11 12  1  0
 12 13  2  0
 13 14  1  0
  1 15  1  0
 15 16  2  0
 16 17  1  0
 17 18  2  0
 18 19  1  0
 19 20  1  0
 20 21  1  0
 21 22  1  0
 22 23  1  0
 21 24  1  0
 19 25  2  0
 25 26  1  0
 26 27  2  0
 13  4  1  0
 27 15  1  0
 12  7  1  0
 26 18  1  0
M  END
>  <AAScore>  (1) 
4742.944274426948

>  <RootName>  (1) 
./4ZLY/04_DeltaGEst/trajectory_05/rank_00/lead_0497

$$$$
