confid_16
     RDKit          3D

 30 33  0  0  0  0  0  0  0  0999 V2000
   25.3300   26.2600   34.7600 N   0  0  0  0  0  0  0  0  0  0  0  0
   26.1200   25.9200   33.6900 C   0  0  0  0  0  0  0  0  0  0  0  0
   25.6300   25.1100   32.9400 O   0  0  0  0  0  0  0  0  0  0  0  0
   27.5200   26.3800   33.4600 C   0  0  0  0  0  0  0  0  0  0  0  0
   28.1600   26.6300   34.6100 N   0  0  0  0  0  0  0  0  0  0  0  0
   29.4800   26.8500   34.5700 N   0  0  0  0  0  0  0  0  0  0  0  0
   30.1900   26.7800   33.4400 C   0  0  0  0  0  0  0  0  0  0  0  0
   31.5600   27.0500   33.5000 C   0  0  0  0  0  0  0  0  0  0  0  0
   32.2700   27.2400   32.3100 C   0  0  0  0  0  0  0  0  0  0  0  0
   31.6100   27.2500   31.0800 C   0  0  0  0  0  0  0  0  0  0  0  0
   30.2700   26.8700   31.0600 C   0  0  0  0  0  0  0  0  0  0  0  0
   29.5100   26.6900   32.2300 C   0  0  0  0  0  0  0  0  0  0  0  0
   28.1400   26.4100   32.2000 C   0  0  0  0  0  0  0  0  0  0  0  0
   27.4300   26.1300   31.0500 N   0  0  0  0  0  0  0  0  0  0  0  0
   23.9045   26.0631   34.8203 C   0  0  0  0  0  0  0  0  0  0  0  0
   23.1309   25.8359   33.7360 N   0  0  0  0  0  0  0  0  0  0  0  0
   21.8775   25.8301   34.2342 C   0  0  0  0  0  0  0  0  0  0  0  0
   20.6505   25.6269   33.3997 C   0  0  0  0  0  0  0  0  0  0  0  0
   19.4382   25.5944   34.2374 N   0  0  0  0  0  0  0  0  0  0  0  0
   18.2371   24.9993   33.6936 C   0  0  0  0  0  0  0  0  0  0  0  0
   18.2177   24.6108   32.4935 O   0  0  0  0  0  0  0  0  0  0  0  0
   16.9951   24.8251   34.5149 C   0  0  0  0  0  0  0  0  0  0  0  0
   19.4005   26.4296   35.4529 C   0  0  0  0  0  0  0  0  0  0  0  0
   20.6034   26.1241   36.3523 C   0  0  0  0  0  0  0  0  0  0  0  0
   21.8299   26.0732   35.5577 N   0  0  0  0  0  0  0  0  0  0  0  0
   23.1148   26.1843   35.9554 C   0  0  0  0  0  0  0  0  0  0  0  0
   23.5815   26.4733   37.3596 C   0  0  0  0  0  0  0  0  0  0  0  0
   23.7044   27.8392   37.5287 F   0  0  0  0  0  0  0  0  0  0  0  0
   24.8050   25.8728   37.5932 F   0  0  0  0  0  0  0  0  0  0  0  0
   22.6851   25.9789   38.2881 F   0  0  0  0  0  0  0  0  0  0  0  0
  1  2  1  0
  2  3  2  0
  2  4  1  0
  4  5  2  0
  5  6  1  0
  6  7  2  0
  7  8  1  0
  8  9  2  0
  9 10  1  0
 10 11  2  0
 11 12  1  0
 12 13  2  0
 13 14  1  0
  1 15  1  0
 15 16  1  0
 16 17  2  0
 17 18  1  0
 18 19  1  0
 19 20  1  0
 20 21  2  0
 20 22  1  0
 19 23  1  0
 23 24  1  0
 24 25  1  0
 25 26  1  0
 26 27  1  0
 27 28  1  0
 27 29  1  0
 27 30  1  0
 13  4  1  0
 26 15  2  0
 12  7  1  0
 25 17  1  0
M  END
>  <AAScore>  (1) 
1814.4229171391144

>  <RootName>  (1) 
./4ZLY/04_DeltaGEst/trajectory_03/rank_00/lead_0102

$$$$
