confid_14
     RDKit          3D

 28 31  0  0  0  0  0  0  0  0999 V2000
   25.3300   26.2600   34.7600 N   0  0  0  0  0  0  0  0  0  0  0  0
   26.1200   25.9200   33.6900 C   0  0  0  0  0  0  0  0  0  0  0  0
   25.6300   25.1100   32.9400 O   0  0  0  0  0  0  0  0  0  0  0  0
   27.5200   26.3800   33.4600 C   0  0  0  0  0  0  0  0  0  0  0  0
   28.1600   26.6300   34.6100 N   0  0  0  0  0  0  0  0  0  0  0  0
   29.4800   26.8500   34.5700 N   0  0  0  0  0  0  0  0  0  0  0  0
   30.1900   26.7800   33.4400 C   0  0  0  0  0  0  0  0  0  0  0  0
   31.5600   27.0500   33.5000 C   0  0  0  0  0  0  0  0  0  0  0  0
   32.2700   27.2400   32.3100 C   0  0  0  0  0  0  0  0  0  0  0  0
   31.6100   27.2500   31.0800 C   0  0  0  0  0  0  0  0  0  0  0  0
   30.2700   26.8700   31.0600 C   0  0  0  0  0  0  0  0  0  0  0  0
   29.5100   26.6900   32.2300 C   0  0  0  0  0  0  0  0  0  0  0  0
   28.1400   26.4100   32.2000 C   0  0  0  0  0  0  0  0  0  0  0  0
   27.4300   26.1300   31.0500 N   0  0  0  0  0  0  0  0  0  0  0  0
   27.3801   24.7519   30.5446 C   0  0  0  0  0  0  0  0  0  0  0  0
   28.1992   24.5607   29.2564 C   0  0  0  0  0  0  0  0  0  0  0  0
   28.2892   25.7024   28.2354 C   0  0  0  0  0  0  0  0  0  0  0  0
   29.3723   25.6978   27.3006 C   0  0  0  0  0  0  0  0  0  0  0  0
   30.5974   24.4050   27.2645 S   0  0  0  0  0  6  0  0  0  0  0  0
   31.5050   24.5462   28.4542 O   0  0  0  0  0  0  0  0  0  0  0  0
   29.9225   23.0627   27.3034 O   0  0  0  0  0  0  0  0  0  0  0  0
   31.5993   24.4476   25.7903 C   0  0  0  0  0  0  0  0  0  0  0  0
   29.5071   26.7512   26.3840 C   0  0  0  0  0  0  0  0  0  0  0  0
   28.5833   27.7848   26.3437 C   0  0  0  0  0  0  0  0  0  0  0  0
   27.5011   27.7858   27.2107 C   0  0  0  0  0  0  0  0  0  0  0  0
   27.3254   26.7551   28.1489 C   0  0  0  0  0  0  0  0  0  0  0  0
   26.1235   26.8481   29.0554 C   0  0  0  0  0  0  0  0  0  0  0  0
   26.5482   27.1627   30.4931 C   0  0  0  0  0  0  0  0  0  0  0  0
  1  2  1  0
  2  3  2  0
  2  4  1  0
  4  5  2  0
  5  6  1  0
  6  7  2  0
  7  8  1  0
  8  9  2  0
  9 10  1  0
 10 11  2  0
 11 12  1  0
 12 13  2  0
 13 14  1  0
 14 15  1  0
 15 16  1  0
 16 17  1  0
 17 18  2  0
 18 19  1  0
 19 20  2  0
 19 21  2  0
 19 22  1  0
 18 23  1  0
 23 24  2  0
 24 25  1  0
 25 26  2  0
 26 27  1  0
 27 28  1  0
 13  4  1  0
 28 14  1  0
 12  7  1  0
 26 17  1  0
M  END
>  <AAScore>  (1) 
-0.6684582381401584

>  <RootName>  (1) 
./4ZLY/04_DeltaGEst/trajectory_03/rank_01/lead_0407

$$$$
