confid_17
     RDKit          3D

 27 30  0  0  0  0  0  0  0  0999 V2000
   24.4800   26.1000   36.1300 N   0  0  0  0  0  0  0  0  0  0  0  0
   25.2500   26.2500   34.9900 C   0  0  0  0  0  0  0  0  0  0  0  0
   24.7400   25.7600   33.9900 O   0  0  0  0  0  0  0  0  0  0  0  0
   26.5900   26.8900   34.9600 C   0  0  0  0  0  0  0  0  0  0  0  0
   27.0600   27.2400   36.1600 N   0  0  0  0  0  0  0  0  0  0  0  0
   28.3000   27.7100   36.2400 N   0  0  0  0  0  0  0  0  0  0  0  0
   29.0500   27.9600   35.1500 C   0  0  0  0  0  0  0  0  0  0  0  0
   30.3400   28.4900   35.2600 C   0  0  0  0  0  0  0  0  0  0  0  0
   31.1100   28.8200   34.1400 C   0  0  0  0  0  0  0  0  0  0  0  0
   30.5200   28.6700   32.8800 C   0  0  0  0  0  0  0  0  0  0  0  0
   29.2900   28.0200   32.7700 C   0  0  0  0  0  0  0  0  0  0  0  0
   28.5200   27.7100   33.8900 C   0  0  0  0  0  0  0  0  0  0  0  0
   27.2700   27.0800   33.7600 C   0  0  0  0  0  0  0  0  0  0  0  0
   26.7500   26.8800   32.4900 N   0  0  0  0  0  0  0  0  0  0  0  0
   23.4604   25.0995   36.3237 C   0  0  0  0  0  0  0  0  0  0  0  0
   23.3459   23.8943   35.6531 C   0  0  0  0  0  0  0  0  0  0  0  0
   22.2653   23.2755   36.2684 C   0  0  0  0  0  0  0  0  0  0  0  0
   21.7317   21.9713   35.9534 N   0  0  0  0  0  0  0  0  0  0  0  0
   22.3187   21.1664   34.8715 C   0  0  0  0  0  0  0  0  0  0  0  0
   21.2780   20.2143   34.2754 C   0  0  0  0  0  0  0  0  0  0  0  0
   20.6198   19.4386   35.3420 N   0  0  0  0  0  0  0  0  0  0  0  0
   19.6833   18.4693   34.7522 C   0  0  0  0  0  0  0  0  0  0  0  0
   19.8956   20.3499   36.2453 C   0  0  0  0  0  0  0  0  0  0  0  0
   20.8796   21.2921   36.9398 C   0  0  0  0  0  0  0  0  0  0  0  0
   21.7818   24.0607   37.2546 N   0  0  0  0  0  0  0  0  0  0  0  0
   22.5103   25.1647   37.2789 N   0  0  0  0  0  0  0  0  0  0  0  0
   22.3158   26.2372   38.2474 C   0  0  0  0  0  0  0  0  0  0  0  0
  1  2  1  0
  2  3  2  0
  2  4  1  0
  4  5  2  0
  5  6  1  0
  6  7  2  0
  7  8  1  0
  8  9  2  0
  9 10  1  0
 10 11  2  0
 11 12  1  0
 12 13  2  0
 13 14  1  0
  1 15  1  0
 15 16  2  0
 16 17  1  0
 17 18  1  0
 18 19  1  0
 19 20  1  0
 20 21  1  0
 21 22  1  0
 21 23  1  0
 23 24  1  0
 17 25  2  0
 25 26  1  0
 26 27  1  0
 13  4  1  0
 26 15  1  0
 12  7  1  0
 24 18  1  0
M  END
>  <AAScore>  (1) 
417.8786065942985

>  <RootName>  (1) 
./4ZLY/04_DeltaGEst/trajectory_00/rank_00/lead_0363

$$$$
