confid_19
     RDKit          3D

 27 30  0  0  0  0  0  0  0  0999 V2000
   24.2000   26.2400   35.6900 N   0  0  0  0  0  0  0  0  0  0  0  0
   24.8500   26.2800   34.4800 C   0  0  0  0  0  0  0  0  0  0  0  0
   24.3100   25.7400   33.5400 O   0  0  0  0  0  0  0  0  0  0  0  0
   26.1800   26.9700   34.4700 C   0  0  0  0  0  0  0  0  0  0  0  0
   26.6500   27.6000   35.5500 N   0  0  0  0  0  0  0  0  0  0  0  0
   27.7900   28.2700   35.6200 N   0  0  0  0  0  0  0  0  0  0  0  0
   28.5400   28.3000   34.5100 C   0  0  0  0  0  0  0  0  0  0  0  0
   29.7700   28.9400   34.5600 C   0  0  0  0  0  0  0  0  0  0  0  0
   30.7000   28.8900   33.5000 C   0  0  0  0  0  0  0  0  0  0  0  0
   30.3700   28.1400   32.3700 C   0  0  0  0  0  0  0  0  0  0  0  0
   29.1200   27.5200   32.2800 C   0  0  0  0  0  0  0  0  0  0  0  0
   28.2100   27.6100   33.3300 C   0  0  0  0  0  0  0  0  0  0  0  0
   26.9700   26.9700   33.3100 C   0  0  0  0  0  0  0  0  0  0  0  0
   26.5300   26.2400   32.2200 N   0  0  0  0  0  0  0  0  0  0  0  0
   30.1348   29.6925   35.7315 N   0  0  0  0  0  0  0  0  0  0  0  0
   31.3320   29.3356   36.5007 C   0  0  0  0  0  0  0  0  0  0  0  0
   32.3024   30.5328   36.5929 C   0  0  0  0  0  0  0  0  0  0  0  0
   31.6541   31.8203   36.2515 N   0  0  0  0  0  0  0  0  0  0  0  0
   32.4910   32.9556   36.6847 C   0  0  0  0  0  0  0  0  0  0  0  0
   32.1299   34.1948   35.9135 C   0  0  0  0  0  0  0  0  0  0  0  0
   31.6352   35.3448   36.5213 C   0  0  0  0  0  0  0  0  0  0  0  0
   31.3464   36.4849   35.3211 S   0  0  0  0  0  0  0  0  0  0  0  0
   31.8417   35.5428   34.0213 C   0  0  0  0  0  0  0  0  0  0  0  0
   32.2441   34.3099   34.5151 C   0  0  0  0  0  0  0  0  0  0  0  0
   32.8247   33.0275   33.4648 Cl  0  0  0  0  0  0  0  0  0  0  0  0
   30.2968   31.8953   36.8260 C   0  0  0  0  0  0  0  0  0  0  0  0
   29.3907   30.9094   36.0815 C   0  0  0  0  0  0  0  0  0  0  0  0
  1  2  1  0
  2  3  2  0
  2  4  1  0
  4  5  2  0
  5  6  1  0
  6  7  2  0
  7  8  1  0
  8  9  2  0
  9 10  1  0
 10 11  2  0
 11 12  1  0
 12 13  2  0
 13 14  1  0
  8 15  1  0
 15 16  1  0
 16 17  1  0
 17 18  1  0
 18 19  1  0
 19 20  1  0
 20 21  2  0
 21 22  1  0
 22 23  1  0
 23 24  2  0
 24 25  1  0
 18 26  1  0
 26 27  1  0
 13  4  1  0
 27 15  1  0
 12  7  1  0
 24 20  1  0
M  END
>  <AAScore>  (1) 
-8.531440625080753

>  <RootName>  (1) 
./4ZLY/04_DeltaGEst/trajectory_04/rank_01/lead_0437

$$$$
