confid_6
     RDKit          3D

 29 33  0  0  0  0  0  0  0  0999 V2000
   24.5700   26.8800   35.5900 N   0  0  0  0  0  0  0  0  0  0  0  0
   25.5000   26.4000   34.6900 C   0  0  0  0  0  0  0  0  0  0  0  0
   25.1700   25.5200   33.9100 O   0  0  0  0  0  0  0  0  0  0  0  0
   26.8400   27.0200   34.7400 C   0  0  0  0  0  0  0  0  0  0  0  0
   27.3800   27.2800   35.9400 N   0  0  0  0  0  0  0  0  0  0  0  0
   28.6200   27.7400   36.0300 N   0  0  0  0  0  0  0  0  0  0  0  0
   29.3800   28.0000   34.9600 C   0  0  0  0  0  0  0  0  0  0  0  0
   30.6700   28.5000   35.1300 C   0  0  0  0  0  0  0  0  0  0  0  0
   31.5400   28.6100   34.0300 C   0  0  0  0  0  0  0  0  0  0  0  0
   31.0900   28.2200   32.7700 C   0  0  0  0  0  0  0  0  0  0  0  0
   29.8000   27.7000   32.6000 C   0  0  0  0  0  0  0  0  0  0  0  0
   28.9600   27.5500   33.7100 C   0  0  0  0  0  0  0  0  0  0  0  0
   27.6600   27.0300   33.5900 C   0  0  0  0  0  0  0  0  0  0  0  0
   27.1600   26.7400   32.3400 N   0  0  0  0  0  0  0  0  0  0  0  0
   23.1712   26.5711   35.5086 C   0  0  0  0  0  0  0  0  0  0  0  0
   22.5106   26.1435   36.5369 N   0  0  0  0  0  0  0  0  0  0  0  0
   21.2249   25.7339   36.0668 C   0  0  0  0  0  0  0  0  0  0  0  0
   21.1366   25.8590   34.7475 C   0  0  0  0  0  0  0  0  0  0  0  0
   19.9192   25.7642   33.8778 C   0  0  1  0  0  0  0  0  0  0  0  0
   20.3715   25.7064   32.4014 C   0  0  0  0  0  0  0  0  0  0  0  0
   21.4225   26.7025   32.0888 N   0  0  0  0  0  0  0  0  0  0  0  0
   21.5905   27.0967   30.6834 C   0  0  0  0  0  0  0  0  0  0  0  0
   21.4425   28.6102   30.5220 C   0  0  0  0  0  0  0  0  0  0  0  0
   22.6602   29.2714   30.7966 O   0  0  0  0  0  0  0  0  0  0  0  0
   22.8873   29.3645   32.1884 C   0  0  0  0  0  0  0  0  0  0  0  0
   23.5045   28.0738   32.7434 C   0  0  0  0  0  0  0  0  0  0  0  0
   22.4435   27.0412   33.0694 C   0  0  0  0  0  0  0  0  0  0  0  0
   22.3547   26.4796   34.2893 C   0  0  0  0  0  0  0  0  0  0  0  0
   19.0588   24.5436   34.2267 C   0  0  0  0  0  0  0  0  0  0  0  0
  1  2  1  0
  2  3  2  0
  2  4  1  0
  4  5  2  0
  5  6  1  0
  6  7  2  0
  7  8  1  0
  8  9  2  0
  9 10  1  0
 10 11  2  0
 11 12  1  0
 12 13  2  0
 13 14  1  0
  1 15  1  0
 15 16  2  0
 16 17  1  0
 17 18  2  0
 18 19  1  0
 19 20  1  0
 20 21  1  0
 21 22  1  0
 22 23  1  0
 23 24  1  0
 24 25  1  0
 25 26  1  0
 26 27  1  0
 27 28  2  0
 19 29  1  1
 13  4  1  0
 28 15  1  0
 12  7  1  0
 28 18  1  0
 27 21  1  0
M  END
>  <AAScore>  (1) 
10867.457950909677

>  <RootName>  (1) 
./4ZLY/04_DeltaGEst/trajectory_05/rank_00/lead_0034

$$$$
