confid_17
     RDKit          3D

 29 32  0  0  0  0  0  0  0  0999 V2000
   24.6900   26.1200   35.5300 N   0  0  0  0  0  0  0  0  0  0  0  0
   25.6600   25.6700   34.6600 C   0  0  0  0  0  0  0  0  0  0  0  0
   25.2400   25.0100   33.7200 O   0  0  0  0  0  0  0  0  0  0  0  0
   27.0300   26.2200   34.8800 C   0  0  0  0  0  0  0  0  0  0  0  0
   27.3500   26.7300   36.0700 N   0  0  0  0  0  0  0  0  0  0  0  0
   28.5700   27.1800   36.3300 N   0  0  0  0  0  0  0  0  0  0  0  0
   29.5300   27.1100   35.3900 C   0  0  0  0  0  0  0  0  0  0  0  0
   30.8300   27.5700   35.6500 C   0  0  0  0  0  0  0  0  0  0  0  0
   31.8500   27.5400   34.6900 C   0  0  0  0  0  0  0  0  0  0  0  0
   31.5100   27.1200   33.4000 C   0  0  0  0  0  0  0  0  0  0  0  0
   30.2200   26.6300   33.1100 C   0  0  0  0  0  0  0  0  0  0  0  0
   29.2400   26.6600   34.1000 C   0  0  0  0  0  0  0  0  0  0  0  0
   27.9300   26.2600   33.8100 C   0  0  0  0  0  0  0  0  0  0  0  0
   27.5200   25.7100   32.6100 N   0  0  0  0  0  0  0  0  0  0  0  0
   23.2755   26.1468   35.2519 C   0  0  0  0  0  0  0  0  0  0  0  0
   22.4021   25.9140   36.2658 N   0  0  0  0  0  0  0  0  0  0  0  0
   21.0569   25.9386   36.0843 C   0  0  0  0  0  0  0  0  0  0  0  0
   20.5054   26.2069   34.8196 C   0  0  0  0  0  0  0  0  0  0  0  0
   18.9938   26.1512   34.6764 C   0  0  0  0  0  0  0  0  0  0  0  0
   18.3428   27.5412   34.7480 C   0  0  0  0  0  0  0  0  0  0  0  0
   18.3555   28.1750   33.4072 N   0  0  0  0  0  0  0  0  0  0  0  0
   17.0536   28.0145   32.7342 C   0  0  0  0  0  0  0  0  0  0  0  0
   18.7429   29.5972   33.4477 C   0  0  0  0  0  0  0  0  0  0  0  0
   20.1813   29.7617   33.8811 C   0  0  0  0  0  0  0  0  0  0  0  0
   21.1934   29.2540   33.2569 N   0  0  0  0  0  0  0  0  0  0  0  0
   21.1455   28.4260   32.0628 C   0  0  0  0  0  0  0  0  0  0  0  0
   20.9209   26.9244   32.3681 C   0  0  0  0  0  0  0  0  0  0  0  0
   21.3926   26.5117   33.7502 C   0  0  0  0  0  0  0  0  0  0  0  0
   22.7791   26.4826   33.9844 C   0  0  0  0  0  0  0  0  0  0  0  0
  1  2  1  0
  2  3  2  0
  2  4  1  0
  4  5  2  0
  5  6  1  0
  6  7  2  0
  7  8  1  0
  8  9  2  0
  9 10  1  0
 10 11  2  0
 11 12  1  0
 12 13  2  0
 13 14  1  0
  1 15  1  0
 15 16  2  0
 16 17  1  0
 17 18  2  0
 18 19  1  0
 19 20  1  0
 20 21  1  0
 21 22  1  0
 21 23  1  0
 23 24  1  0
 24 25  2  0
 25 26  1  0
 26 27  1  0
 27 28  1  0
 28 29  2  0
 13  4  1  0
 29 15  1  0
 12  7  1  0
 28 18  1  0
M  END
>  <AAScore>  (1) 
606.2929135981714

>  <RootName>  (1) 
./4ZLY/04_DeltaGEst/trajectory_02/rank_00/lead_0495

$$$$
