confid_4
     RDKit          3D

 31 34  0  0  0  0  0  0  0  0999 V2000
   24.2000   26.2400   35.6900 N   0  0  0  0  0  0  0  0  0  0  0  0
   24.8500   26.2800   34.4800 C   0  0  0  0  0  0  0  0  0  0  0  0
   24.3100   25.7400   33.5400 O   0  0  0  0  0  0  0  0  0  0  0  0
   26.1800   26.9700   34.4700 C   0  0  0  0  0  0  0  0  0  0  0  0
   26.6500   27.6000   35.5500 N   0  0  0  0  0  0  0  0  0  0  0  0
   27.7900   28.2700   35.6200 N   0  0  0  0  0  0  0  0  0  0  0  0
   28.5400   28.3000   34.5100 C   0  0  0  0  0  0  0  0  0  0  0  0
   29.7700   28.9400   34.5600 C   0  0  0  0  0  0  0  0  0  0  0  0
   30.7000   28.8900   33.5000 C   0  0  0  0  0  0  0  0  0  0  0  0
   30.3700   28.1400   32.3700 C   0  0  0  0  0  0  0  0  0  0  0  0
   29.1200   27.5200   32.2800 C   0  0  0  0  0  0  0  0  0  0  0  0
   28.2100   27.6100   33.3300 C   0  0  0  0  0  0  0  0  0  0  0  0
   26.9700   26.9700   33.3100 C   0  0  0  0  0  0  0  0  0  0  0  0
   26.5300   26.2400   32.2200 N   0  0  0  0  0  0  0  0  0  0  0  0
   22.7822   26.0240   35.8046 C   0  0  0  0  0  0  0  0  0  0  0  0
   21.9894   26.5465   34.9102 N   0  0  0  0  0  0  0  0  0  0  0  0
   20.5695   26.3983   34.9006 C   0  0  0  0  0  0  0  0  0  0  0  0
   19.7687   27.4511   35.0884 C   0  0  0  0  0  0  0  0  0  0  0  0
   18.2757   27.3137   35.1690 C   0  0  0  0  0  0  0  0  0  0  0  0
   17.8117   28.6619   35.4438 N   0  0  0  0  0  0  0  0  0  0  0  0
   18.9180   29.5501   35.5386 C   0  0  0  0  0  0  0  0  0  0  0  0
   18.7922   30.7826   35.7795 O   0  0  0  0  0  0  0  0  0  0  0  0
   20.2234   28.8799   35.2904 C   0  0  1  0  0  0  0  0  0  0  0  0
   21.2221   29.1120   36.4525 C   0  0  0  0  0  0  0  0  0  0  0  0
   20.8687   28.4185   37.7868 C   0  0  0  0  0  0  0  0  0  0  0  0
   21.8204   27.4081   38.0866 O   0  0  0  0  0  0  0  0  0  0  0  0
   21.3084   26.0990   37.8969 C   0  0  0  0  0  0  0  0  0  0  0  0
   22.2527   25.2693   37.0103 C   0  0  0  0  0  0  0  0  0  0  0  0
   16.4133   29.0288   35.6600 C   0  0  0  0  0  0  0  0  0  0  0  0
   16.0193   30.0408   34.7560 O   0  0  0  0  0  0  0  0  0  0  0  0
   15.7637   29.4844   33.4846 C   0  0  0  0  0  0  0  0  0  0  0  0
  1  2  1  0
  2  3  2  0
  2  4  1  0
  4  5  2  0
  5  6  1  0
  6  7  2  0
  7  8  1  0
  8  9  2  0
  9 10  1  0
 10 11  2  0
 11 12  1  0
 12 13  2  0
 13 14  1  0
  1 15  1  0
 15 16  2  0
 16 17  1  0
 17 18  2  0
 18 19  1  0
 19 20  1  0
 20 21  1  0
 21 22  2  0
 21 23  1  0
 23 24  1  1
 24 25  1  0
 25 26  1  0
 26 27  1  0
 27 28  1  0
 20 29  1  0
 29 30  1  0
 30 31  1  0
 13  4  1  0
 28 15  1  0
 12  7  1  0
 23 18  1  0
M  END
>  <AAScore>  (1) 
4467.99248328482

>  <RootName>  (1) 
./4ZLY/04_DeltaGEst/trajectory_04/rank_00/lead_0151

$$$$
