confid_3
     RDKit          3D

 30 33  0  0  0  0  0  0  0  0999 V2000
   24.5500   26.3900   36.2500 N   0  0  0  0  0  0  0  0  0  0  0  0
   25.6000   26.1300   35.4000 C   0  0  0  0  0  0  0  0  0  0  0  0
   25.4300   25.4300   34.4200 O   0  0  0  0  0  0  0  0  0  0  0  0
   26.9800   26.6300   35.7100 C   0  0  0  0  0  0  0  0  0  0  0  0
   27.3200   26.8200   36.9800 N   0  0  0  0  0  0  0  0  0  0  0  0
   28.4700   27.4000   37.3100 N   0  0  0  0  0  0  0  0  0  0  0  0
   29.4000   27.6300   36.3700 C   0  0  0  0  0  0  0  0  0  0  0  0
   30.6600   28.0500   36.8000 C   0  0  0  0  0  0  0  0  0  0  0  0
   31.5700   28.3600   35.7800 C   0  0  0  0  0  0  0  0  0  0  0  0
   31.3700   28.1000   34.4300 C   0  0  0  0  0  0  0  0  0  0  0  0
   30.1200   27.5900   34.0500 C   0  0  0  0  0  0  0  0  0  0  0  0
   29.1500   27.3400   35.0300 C   0  0  0  0  0  0  0  0  0  0  0  0
   27.8800   26.8900   34.6600 C   0  0  0  0  0  0  0  0  0  0  0  0
   27.4800   26.6100   33.3700 N   0  0  0  0  0  0  0  0  0  0  0  0
   30.9589   28.3218   38.1792 N   0  0  0  0  0  0  0  0  0  0  0  0
   30.8892   27.2579   39.1845 C   0  0  0  0  0  0  0  0  0  0  0  0
   29.8403   27.6054   40.2614 C   0  0  0  0  0  0  0  0  0  0  0  0
   29.3665   29.0058   40.1405 N   0  0  0  0  0  0  0  0  0  0  0  0
   28.5116   29.3834   41.2825 C   0  0  0  0  0  0  0  0  0  0  0  0
   27.1702   28.6991   41.1734 C   0  0  0  0  0  0  0  0  0  0  0  0
   26.2940   29.0411   40.1256 C   0  0  0  0  0  0  0  0  0  0  0  0
   25.0694   28.3808   39.9874 C   0  0  0  0  0  0  0  0  0  0  0  0
   24.7095   27.3741   40.8862 C   0  0  0  0  0  0  0  0  0  0  0  0
   23.5229   26.7335   40.7465 F   0  0  0  0  0  0  0  0  0  0  0  0
   25.5744   27.0243   41.9262 C   0  0  0  0  0  0  0  0  0  0  0  0
   26.8020   27.6789   42.0718 C   0  0  0  0  0  0  0  0  0  0  0  0
   27.6317   27.3073   43.0795 F   0  0  0  0  0  0  0  0  0  0  0  0
   26.6314   30.0056   39.2320 F   0  0  0  0  0  0  0  0  0  0  0  0
   30.5123   29.9249   39.9963 C   0  0  0  0  0  0  0  0  0  0  0  0
   31.1713   29.7028   38.6256 C   0  0  0  0  0  0  0  0  0  0  0  0
  1  2  1  0
  2  3  2  0
  2  4  1  0
  4  5  2  0
  5  6  1  0
  6  7  2  0
  7  8  1  0
  8  9  2  0
  9 10  1  0
 10 11  2  0
 11 12  1  0
 12 13  2  0
 13 14  1  0
  8 15  1  0
 15 16  1  0
 16 17  1  0
 17 18  1  0
 18 19  1  0
 19 20  1  0
 20 21  2  0
 21 22  1  0
 22 23  2  0
 23 24  1  0
 23 25  1  0
 25 26  2  0
 26 27  1  0
 21 28  1  0
 18 29  1  0
 29 30  1  0
 13  4  1  0
 30 15  1  0
 12  7  1  0
 26 20  1  0
M  END
>  <AAScore>  (1) 
17.653451577837306

>  <RootName>  (1) 
./4ZLY/04_DeltaGEst/trajectory_01/rank_01/lead_0054

$$$$
