confid_9
     RDKit          3D

 27 31  0  0  0  0  0  0  0  0999 V2000
   24.5500   26.3900   36.2500 N   0  0  0  0  0  0  0  0  0  0  0  0
   25.6000   26.1300   35.4000 C   0  0  0  0  0  0  0  0  0  0  0  0
   25.4300   25.4300   34.4200 O   0  0  0  0  0  0  0  0  0  0  0  0
   26.9800   26.6300   35.7100 C   0  0  0  0  0  0  0  0  0  0  0  0
   27.3200   26.8200   36.9800 N   0  0  0  0  0  0  0  0  0  0  0  0
   28.4700   27.4000   37.3100 N   0  0  0  0  0  0  0  0  0  0  0  0
   29.4000   27.6300   36.3700 C   0  0  0  0  0  0  0  0  0  0  0  0
   30.6600   28.0500   36.8000 C   0  0  0  0  0  0  0  0  0  0  0  0
   31.5700   28.3600   35.7800 C   0  0  0  0  0  0  0  0  0  0  0  0
   31.3700   28.1000   34.4300 C   0  0  0  0  0  0  0  0  0  0  0  0
   30.1200   27.5900   34.0500 C   0  0  0  0  0  0  0  0  0  0  0  0
   29.1500   27.3400   35.0300 C   0  0  0  0  0  0  0  0  0  0  0  0
   27.8800   26.8900   34.6600 C   0  0  0  0  0  0  0  0  0  0  0  0
   27.4800   26.6100   33.3700 N   0  0  0  0  0  0  0  0  0  0  0  0
   30.9632   28.2859   38.1858 N   0  0  0  0  0  0  0  0  0  0  0  0
   31.1355   27.1286   39.0866 C   0  0  0  0  0  0  0  0  0  0  0  0
   30.7266   27.4567   40.5375 C   0  0  0  0  0  0  0  0  0  0  0  0
   31.3071   28.7710   40.9572 C   0  0  0  0  0  0  0  0  0  0  0  0
   31.5782   29.3228   42.5208 S   0  0  0  0  0  0  0  0  0  0  0  0
   32.0218   30.8640   41.9867 C   0  0  0  0  0  0  0  0  0  0  0  0
   32.4894   31.9677   42.8821 C   0  0  0  0  0  0  0  0  0  0  0  0
   31.4271   32.4995   43.8321 C   0  0  0  0  0  0  0  0  0  0  0  0
   31.8408   33.3195   42.6222 C   0  0  0  0  0  0  0  0  0  0  0  0
   31.9621   30.9703   40.6380 N   0  0  0  0  0  0  0  0  0  0  0  0
   31.5481   29.8052   40.0760 C   0  0  0  0  0  0  0  0  0  0  0  0
   31.3283   29.6051   38.6448 C   0  0  0  0  0  0  0  0  0  0  0  0
   31.4187   30.5751   37.8440 O   0  0  0  0  0  0  0  0  0  0  0  0
  1  2  1  0
  2  3  2  0
  2  4  1  0
  4  5  2  0
  5  6  1  0
  6  7  2  0
  7  8  1  0
  8  9  2  0
  9 10  1  0
 10 11  2  0
 11 12  1  0
 12 13  2  0
 13 14  1  0
  8 15  1  0
 15 16  1  0
 16 17  1  0
 17 18  1  0
 18 19  1  0
 19 20  1  0
 20 21  1  0
 21 22  1  0
 22 23  1  0
 20 24  2  0
 24 25  1  0
 25 26  1  0
 26 27  2  0
 13  4  1  0
 26 15  1  0
 12  7  1  0
 25 18  2  0
 23 21  1  0
M  END
>  <AAScore>  (1) 
101.47580806364968

>  <RootName>  (1) 
./4ZLY/04_DeltaGEst/trajectory_01/rank_01/lead_0143

$$$$
