confid_13
     RDKit          3D

 28 32  0  0  0  0  0  0  0  0999 V2000
   25.3300   26.2600   34.7600 N   0  0  0  0  0  0  0  0  0  0  0  0
   26.1200   25.9200   33.6900 C   0  0  0  0  0  0  0  0  0  0  0  0
   25.6300   25.1100   32.9400 O   0  0  0  0  0  0  0  0  0  0  0  0
   27.5200   26.3800   33.4600 C   0  0  0  0  0  0  0  0  0  0  0  0
   28.1600   26.6300   34.6100 N   0  0  0  0  0  0  0  0  0  0  0  0
   29.4800   26.8500   34.5700 N   0  0  0  0  0  0  0  0  0  0  0  0
   30.1900   26.7800   33.4400 C   0  0  0  0  0  0  0  0  0  0  0  0
   31.5600   27.0500   33.5000 C   0  0  0  0  0  0  0  0  0  0  0  0
   32.2700   27.2400   32.3100 C   0  0  0  0  0  0  0  0  0  0  0  0
   31.6100   27.2500   31.0800 C   0  0  0  0  0  0  0  0  0  0  0  0
   30.2700   26.8700   31.0600 C   0  0  0  0  0  0  0  0  0  0  0  0
   29.5100   26.6900   32.2300 C   0  0  0  0  0  0  0  0  0  0  0  0
   28.1400   26.4100   32.2000 C   0  0  0  0  0  0  0  0  0  0  0  0
   27.4300   26.1300   31.0500 N   0  0  0  0  0  0  0  0  0  0  0  0
   23.8858   26.2405   34.7841 C   0  0  0  0  0  0  0  0  0  0  0  0
   23.2505   26.0306   33.6581 N   0  0  0  0  0  0  0  0  0  0  0  0
   21.8953   25.9418   33.1857 C   0  0  0  0  0  0  0  0  0  0  0  0
   20.8290   26.4056   33.8185 C   0  0  0  0  0  0  0  0  0  0  0  0
   19.4734   26.9149   33.4187 C   0  0  0  0  0  0  0  0  0  0  0  0
   19.1777   27.4639   34.6615 O   0  0  0  0  0  0  0  0  0  0  0  0
   20.3669   26.9223   35.1366 C   0  0  2  0  0  0  0  0  0  0  0  0
   21.3384   27.9519   35.6951 C   0  0  0  0  0  0  0  0  0  0  0  0
   22.3058   27.1979   36.5448 C   0  0  0  0  0  0  0  0  0  0  0  0
   23.2760   26.3879   36.1313 C   0  0  0  0  0  0  0  0  0  0  0  0
   23.8482   25.7374   37.2109 O   0  0  0  0  0  0  0  0  0  0  0  0
   23.2429   26.1098   38.4372 C   0  0  1  0  0  0  0  0  0  0  0  0
   22.1484   27.1089   38.0291 C   0  0  0  0  0  0  0  0  0  0  0  0
   22.6806   24.8759   39.1398 C   0  0  0  0  0  0  0  0  0  0  0  0
  1  2  1  0
  2  3  2  0
  2  4  1  0
  4  5  2  0
  5  6  1  0
  6  7  2  0
  7  8  1  0
  8  9  2  0
  9 10  1  0
 10 11  2  0
 11 12  1  0
 12 13  2  0
 13 14  1  0
  1 15  1  0
 15 16  2  0
 16 17  1  0
 17 18  2  0
 18 19  1  0
 19 20  1  0
 20 21  1  0
 21 22  1  6
 22 23  1  0
 23 24  2  0
 24 25  1  0
 25 26  1  0
 26 27  1  0
 26 28  1  6
 13  4  1  0
 24 15  1  0
 12  7  1  0
 21 18  1  0
 27 23  1  0
M  END
>  <AAScore>  (1) 
383.2157329856712

>  <RootName>  (1) 
./4ZLY/04_DeltaGEst/trajectory_03/rank_00/lead_0120

$$$$
