confid_13
     RDKit          3D

 27 30  0  0  0  0  0  0  0  0999 V2000
   24.2000   26.2400   35.6900 N   0  0  0  0  0  0  0  0  0  0  0  0
   24.8500   26.2800   34.4800 C   0  0  0  0  0  0  0  0  0  0  0  0
   24.3100   25.7400   33.5400 O   0  0  0  0  0  0  0  0  0  0  0  0
   26.1800   26.9700   34.4700 C   0  0  0  0  0  0  0  0  0  0  0  0
   26.6500   27.6000   35.5500 N   0  0  0  0  0  0  0  0  0  0  0  0
   27.7900   28.2700   35.6200 N   0  0  0  0  0  0  0  0  0  0  0  0
   28.5400   28.3000   34.5100 C   0  0  0  0  0  0  0  0  0  0  0  0
   29.7700   28.9400   34.5600 C   0  0  0  0  0  0  0  0  0  0  0  0
   30.7000   28.8900   33.5000 C   0  0  0  0  0  0  0  0  0  0  0  0
   30.3700   28.1400   32.3700 C   0  0  0  0  0  0  0  0  0  0  0  0
   29.1200   27.5200   32.2800 C   0  0  0  0  0  0  0  0  0  0  0  0
   28.2100   27.6100   33.3300 C   0  0  0  0  0  0  0  0  0  0  0  0
   26.9700   26.9700   33.3100 C   0  0  0  0  0  0  0  0  0  0  0  0
   26.5300   26.2400   32.2200 N   0  0  0  0  0  0  0  0  0  0  0  0
   30.1400   29.6722   35.7410 N   0  0  0  0  0  0  0  0  0  0  0  0
   31.0977   29.0666   36.6788 C   0  0  0  0  0  0  0  0  0  0  0  0
   31.9934   30.0948   37.3916 C   0  0  0  0  0  0  0  0  0  0  0  0
   32.5515   31.1672   36.4451 C   0  0  0  0  0  0  0  0  0  0  0  0
   31.5932   32.2730   36.3064 N   0  0  0  0  0  0  0  0  0  0  0  0
   30.4016   32.0982   35.4659 C   0  0  0  0  0  0  0  0  0  0  0  0
   29.5126   30.9729   36.0003 C   0  0  0  0  0  0  0  0  0  0  0  0
   31.7366   33.4530   37.1219 C   0  0  0  0  0  0  0  0  0  0  0  0
   30.6780   33.8935   37.9360 C   0  0  0  0  0  0  0  0  0  0  0  0
   30.8233   35.0387   38.7249 C   0  0  0  0  0  0  0  0  0  0  0  0
   32.0226   35.7551   38.7059 C   0  0  0  0  0  0  0  0  0  0  0  0
   33.0783   35.3283   37.8962 C   0  0  0  0  0  0  0  0  0  0  0  0
   32.9374   34.1833   37.1062 C   0  0  0  0  0  0  0  0  0  0  0  0
  1  2  1  0
  2  3  2  0
  2  4  1  0
  4  5  2  0
  5  6  1  0
  6  7  2  0
  7  8  1  0
  8  9  2  0
  9 10  1  0
 10 11  2  0
 11 12  1  0
 12 13  2  0
 13 14  1  0
  8 15  1  0
 15 16  1  0
 16 17  1  0
 17 18  1  0
 18 19  1  0
 19 20  1  0
 20 21  1  0
 19 22  1  0
 22 23  2  0
 23 24  1  0
 24 25  2  0
 25 26  1  0
 26 27  2  0
 13  4  1  0
 21 15  1  0
 27 22  1  0
 12  7  1  0
M  END
>  <AAScore>  (1) 
-7.639380518855784

>  <RootName>  (1) 
./4ZLY/04_DeltaGEst/trajectory_04/rank_01/lead_0026

$$$$
