confid_2
     RDKit          3D

 27 31  0  0  0  0  0  0  0  0999 V2000
   24.4800   26.1000   36.1300 N   0  0  0  0  0  0  0  0  0  0  0  0
   25.2500   26.2500   34.9900 C   0  0  0  0  0  0  0  0  0  0  0  0
   24.7400   25.7600   33.9900 O   0  0  0  0  0  0  0  0  0  0  0  0
   26.5900   26.8900   34.9600 C   0  0  0  0  0  0  0  0  0  0  0  0
   27.0600   27.2400   36.1600 N   0  0  0  0  0  0  0  0  0  0  0  0
   28.3000   27.7100   36.2400 N   0  0  0  0  0  0  0  0  0  0  0  0
   29.0500   27.9600   35.1500 C   0  0  0  0  0  0  0  0  0  0  0  0
   30.3400   28.4900   35.2600 C   0  0  0  0  0  0  0  0  0  0  0  0
   31.1100   28.8200   34.1400 C   0  0  0  0  0  0  0  0  0  0  0  0
   30.5200   28.6700   32.8800 C   0  0  0  0  0  0  0  0  0  0  0  0
   29.2900   28.0200   32.7700 C   0  0  0  0  0  0  0  0  0  0  0  0
   28.5200   27.7100   33.8900 C   0  0  0  0  0  0  0  0  0  0  0  0
   27.2700   27.0800   33.7600 C   0  0  0  0  0  0  0  0  0  0  0  0
   26.7500   26.8800   32.4900 N   0  0  0  0  0  0  0  0  0  0  0  0
   23.0494   25.9658   36.1338 C   0  0  0  0  0  0  0  0  0  0  0  0
   22.3974   25.4449   37.1274 N   0  0  0  0  0  0  0  0  0  0  0  0
   21.0025   25.5120   36.7950 C   0  0  0  0  0  0  0  0  0  0  0  0
   20.8387   26.0332   35.5822 C   0  0  0  0  0  0  0  0  0  0  0  0
   19.8142   26.9886   35.0461 C   0  0  2  0  0  0  0  0  0  0  0  0
   18.9474   26.3174   34.2027 F   0  0  0  0  0  0  0  0  0  0  0  0
   20.6702   27.9021   34.2605 N   0  0  0  0  0  0  0  0  0  0  0  0
   20.5351   29.3416   34.0793 C   0  0  0  0  0  0  0  0  0  0  0  0
   21.8312   29.9797   34.5976 C   0  0  0  0  0  0  0  0  0  0  0  0
   23.2176   28.8147   34.3185 S   0  0  0  0  0  0  0  0  0  0  0  0
   22.0252   27.4971   34.3780 C   0  0  0  0  0  0  0  0  0  0  0  0
   22.1243   26.3863   35.0889 C   0  0  0  0  0  0  0  0  0  0  0  0
   19.0299   27.7025   36.1574 C   0  0  0  0  0  0  0  0  0  0  0  0
  1  2  1  0
  2  3  2  0
  2  4  1  0
  4  5  2  0
  5  6  1  0
  6  7  2  0
  7  8  1  0
  8  9  2  0
  9 10  1  0
 10 11  2  0
 11 12  1  0
 12 13  2  0
 13 14  1  0
  1 15  1  0
 15 16  2  0
 16 17  1  0
 17 18  2  0
 18 19  1  0
 19 20  1  0
 19 21  1  0
 21 22  1  0
 22 23  1  0
 23 24  1  0
 24 25  1  0
 25 26  2  0
 19 27  1  1
 13  4  1  0
 26 15  1  0
 12  7  1  0
 26 18  1  0
 25 21  1  0
M  END
>  <AAScore>  (1) 
197.49963817502044

>  <RootName>  (1) 
./4ZLY/04_DeltaGEst/trajectory_00/rank_00/lead_0055

$$$$
