confid_2
     RDKit          3D

 28 32  0  0  0  0  0  0  0  0999 V2000
   24.6900   26.1200   35.5300 N   0  0  0  0  0  0  0  0  0  0  0  0
   25.6600   25.6700   34.6600 C   0  0  0  0  0  0  0  0  0  0  0  0
   25.2400   25.0100   33.7200 O   0  0  0  0  0  0  0  0  0  0  0  0
   27.0300   26.2200   34.8800 C   0  0  0  0  0  0  0  0  0  0  0  0
   27.3500   26.7300   36.0700 N   0  0  0  0  0  0  0  0  0  0  0  0
   28.5700   27.1800   36.3300 N   0  0  0  0  0  0  0  0  0  0  0  0
   29.5300   27.1100   35.3900 C   0  0  0  0  0  0  0  0  0  0  0  0
   30.8300   27.5700   35.6500 C   0  0  0  0  0  0  0  0  0  0  0  0
   31.8500   27.5400   34.6900 C   0  0  0  0  0  0  0  0  0  0  0  0
   31.5100   27.1200   33.4000 C   0  0  0  0  0  0  0  0  0  0  0  0
   30.2200   26.6300   33.1100 C   0  0  0  0  0  0  0  0  0  0  0  0
   29.2400   26.6600   34.1000 C   0  0  0  0  0  0  0  0  0  0  0  0
   27.9300   26.2600   33.8100 C   0  0  0  0  0  0  0  0  0  0  0  0
   27.5200   25.7100   32.6100 N   0  0  0  0  0  0  0  0  0  0  0  0
   31.1975   28.0620   37.0064 C   0  0  0  0  0  0  0  0  0  0  0  0
   30.7745   27.5538   38.2232 C   0  0  0  0  0  0  0  0  0  0  0  0
   31.4264   28.2808   39.2024 C   0  0  0  0  0  0  0  0  0  0  0  0
   31.2284   28.0679   40.6488 C   0  0  0  0  0  0  0  0  0  0  0  0
   30.8790   26.9277   41.0585 O   0  0  0  0  0  0  0  0  0  0  0  0
   31.3004   29.1580   41.5785 N   0  0  0  0  0  0  0  0  0  0  0  0
   32.5317   29.9405   41.6982 C   0  0  0  0  0  0  0  0  0  0  0  0
   32.7509   30.8136   40.4617 C   0  0  0  0  0  0  0  0  0  0  0  0
   33.2800   30.0080   39.2743 C   0  0  0  0  0  0  0  0  0  0  0  0
   32.2340   29.2064   38.6341 N   0  0  0  0  0  0  0  0  0  0  0  0
   32.1086   29.0628   37.2982 C   0  0  0  0  0  0  0  0  0  0  0  0
   30.0495   29.6906   42.1284 C   0  0  0  0  0  0  0  0  0  0  0  0
   29.2923   28.7273   43.0334 C   0  0  0  0  0  0  0  0  0  0  0  0
   30.0592   29.8903   43.6385 C   0  0  0  0  0  0  0  0  0  0  0  0
  1  2  1  0
  2  3  2  0
  2  4  1  0
  4  5  2  0
  5  6  1  0
  6  7  2  0
  7  8  1  0
  8  9  2  0
  9 10  1  0
 10 11  2  0
 11 12  1  0
 12 13  2  0
 13 14  1  0
  8 15  1  0
 15 16  1  0
 16 17  2  0
 17 18  1  0
 18 19  2  0
 18 20  1  0
 20 21  1  0
 21 22  1  0
 22 23  1  0
 23 24  1  0
 24 25  1  0
 20 26  1  0
 26 27  1  0
 27 28  1  0
 13  4  1  0
 25 15  2  0
 28 26  1  0
 12  7  1  0
 24 17  1  0
M  END
>  <AAScore>  (1) 
38.43318727490409

>  <RootName>  (1) 
./4ZLY/04_DeltaGEst/trajectory_02/rank_01/lead_0406

$$$$
