confid_6
     RDKit          3D

 27 30  0  0  0  0  0  0  0  0999 V2000
   24.5700   26.8800   35.5900 N   0  0  0  0  0  0  0  0  0  0  0  0
   25.5000   26.4000   34.6900 C   0  0  0  0  0  0  0  0  0  0  0  0
   25.1700   25.5200   33.9100 O   0  0  0  0  0  0  0  0  0  0  0  0
   26.8400   27.0200   34.7400 C   0  0  0  0  0  0  0  0  0  0  0  0
   27.3800   27.2800   35.9400 N   0  0  0  0  0  0  0  0  0  0  0  0
   28.6200   27.7400   36.0300 N   0  0  0  0  0  0  0  0  0  0  0  0
   29.3800   28.0000   34.9600 C   0  0  0  0  0  0  0  0  0  0  0  0
   30.6700   28.5000   35.1300 C   0  0  0  0  0  0  0  0  0  0  0  0
   31.5400   28.6100   34.0300 C   0  0  0  0  0  0  0  0  0  0  0  0
   31.0900   28.2200   32.7700 C   0  0  0  0  0  0  0  0  0  0  0  0
   29.8000   27.7000   32.6000 C   0  0  0  0  0  0  0  0  0  0  0  0
   28.9600   27.5500   33.7100 C   0  0  0  0  0  0  0  0  0  0  0  0
   27.6600   27.0300   33.5900 C   0  0  0  0  0  0  0  0  0  0  0  0
   27.1600   26.7400   32.3400 N   0  0  0  0  0  0  0  0  0  0  0  0
   23.1687   26.5943   35.4858 C   0  0  0  0  0  0  0  0  0  0  0  0
   22.4584   26.1085   36.5265 N   0  0  0  0  0  0  0  0  0  0  0  0
   21.1923   26.0710   36.0725 C   0  0  0  0  0  0  0  0  0  0  0  0
   21.1624   26.5416   34.7825 C   0  0  0  0  0  0  0  0  0  0  0  0
   19.9923   26.6814   34.0280 O   0  0  0  0  0  0  0  0  0  0  0  0
   19.8413   26.3274   32.6473 C   0  0  2  0  0  0  0  0  0  0  0  0
   19.4738   24.8691   32.4911 C   0  0  0  0  0  0  0  0  0  0  0  0
   18.9551   24.4950   31.4497 O   0  0  0  0  0  0  0  0  0  0  0  0
   19.7528   23.8641   33.5707 C   0  0  0  0  0  0  0  0  0  0  0  0
   21.0666   26.6703   31.7824 C   0  0  0  0  0  0  0  0  0  0  0  0
   21.7365   27.9721   32.2301 C   0  0  0  0  0  0  0  0  0  0  0  0
   22.8425   27.7073   33.2560 C   0  0  0  0  0  0  0  0  0  0  0  0
   22.4108   26.8890   34.4005 N   0  0  0  0  0  0  0  0  0  0  0  0
  1  2  1  0
  2  3  2  0
  2  4  1  0
  4  5  2  0
  5  6  1  0
  6  7  2  0
  7  8  1  0
  8  9  2  0
  9 10  1  0
 10 11  2  0
 11 12  1  0
 12 13  2  0
 13 14  1  0
  1 15  1  0
 15 16  2  0
 16 17  1  0
 17 18  2  0
 18 19  1  0
 19 20  1  0
 20 21  1  1
 21 22  2  0
 21 23  1  0
 20 24  1  0
 24 25  1  0
 25 26  1  0
 26 27  1  0
 13  4  1  0
 27 15  1  0
 12  7  1  0
 27 18  1  0
M  END
>  <AAScore>  (1) 
1407.6899326997736

>  <RootName>  (1) 
./4ZLY/04_DeltaGEst/trajectory_05/rank_00/lead_0173

$$$$
