confid_19
     RDKit          3D

 28 31  0  0  0  0  0  0  0  0999 V2000
   24.5500   26.3900   36.2500 N   0  0  0  0  0  0  0  0  0  0  0  0
   25.6000   26.1300   35.4000 C   0  0  0  0  0  0  0  0  0  0  0  0
   25.4300   25.4300   34.4200 O   0  0  0  0  0  0  0  0  0  0  0  0
   26.9800   26.6300   35.7100 C   0  0  0  0  0  0  0  0  0  0  0  0
   27.3200   26.8200   36.9800 N   0  0  0  0  0  0  0  0  0  0  0  0
   28.4700   27.4000   37.3100 N   0  0  0  0  0  0  0  0  0  0  0  0
   29.4000   27.6300   36.3700 C   0  0  0  0  0  0  0  0  0  0  0  0
   30.6600   28.0500   36.8000 C   0  0  0  0  0  0  0  0  0  0  0  0
   31.5700   28.3600   35.7800 C   0  0  0  0  0  0  0  0  0  0  0  0
   31.3700   28.1000   34.4300 C   0  0  0  0  0  0  0  0  0  0  0  0
   30.1200   27.5900   34.0500 C   0  0  0  0  0  0  0  0  0  0  0  0
   29.1500   27.3400   35.0300 C   0  0  0  0  0  0  0  0  0  0  0  0
   27.8800   26.8900   34.6600 C   0  0  0  0  0  0  0  0  0  0  0  0
   27.4800   26.6100   33.3700 N   0  0  0  0  0  0  0  0  0  0  0  0
   30.9482   28.3411   38.1747 N   0  0  0  0  0  0  0  0  0  0  0  0
   30.3175   29.4913   38.8328 C   0  0  0  0  0  0  0  0  0  0  0  0
   29.7026   29.0538   40.1695 C   0  0  0  0  0  0  0  0  0  0  0  0
   30.5825   28.1254   40.9004 N   0  0  0  0  0  0  0  0  0  0  0  0
   30.1306   27.5934   42.1617 C   0  0  0  0  0  0  0  0  0  0  0  0
   30.4379   26.2783   42.5518 C   0  0  0  0  0  0  0  0  0  0  0  0
   29.9417   25.7787   43.7653 C   0  0  0  0  0  0  0  0  0  0  0  0
   29.1508   26.6024   44.5747 C   0  0  0  0  0  0  0  0  0  0  0  0
   28.8609   27.9067   44.1586 C   0  0  0  0  0  0  0  0  0  0  0  0
   27.9804   28.7900   44.9832 C   0  0  0  0  0  0  0  0  0  0  0  0
   29.3407   28.3570   42.9679 N   0  0  0  0  0  0  0  0  0  0  0  0
   30.2715   24.3834   44.2145 C   0  0  0  0  0  0  0  0  0  0  0  0
   31.9403   27.8650   40.3933 C   0  0  0  0  0  0  0  0  0  0  0  0
   31.8736   27.4723   38.9125 C   0  0  0  0  0  0  0  0  0  0  0  0
  1  2  1  0
  2  3  2  0
  2  4  1  0
  4  5  2  0
  5  6  1  0
  6  7  2  0
  7  8  1  0
  8  9  2  0
  9 10  1  0
 10 11  2  0
 11 12  1  0
 12 13  2  0
 13 14  1  0
  8 15  1  0
 15 16  1  0
 16 17  1  0
 17 18  1  0
 18 19  1  0
 19 20  2  0
 20 21  1  0
 21 22  2  0
 22 23  1  0
 23 24  1  0
 23 25  2  0
 21 26  1  0
 18 27  1  0
 27 28  1  0
 13  4  1  0
 28 15  1  0
 12  7  1  0
 25 19  1  0
M  END
>  <AAScore>  (1) 
39.86799149194324

>  <RootName>  (1) 
./4ZLY/04_DeltaGEst/trajectory_01/rank_01/lead_0121

$$$$
