confid_16
     RDKit          3D

 28 31  0  0  0  0  0  0  0  0999 V2000
   24.6900   26.1200   35.5300 N   0  0  0  0  0  0  0  0  0  0  0  0
   25.6600   25.6700   34.6600 C   0  0  0  0  0  0  0  0  0  0  0  0
   25.2400   25.0100   33.7200 O   0  0  0  0  0  0  0  0  0  0  0  0
   27.0300   26.2200   34.8800 C   0  0  0  0  0  0  0  0  0  0  0  0
   27.3500   26.7300   36.0700 N   0  0  0  0  0  0  0  0  0  0  0  0
   28.5700   27.1800   36.3300 N   0  0  0  0  0  0  0  0  0  0  0  0
   29.5300   27.1100   35.3900 C   0  0  0  0  0  0  0  0  0  0  0  0
   30.8300   27.5700   35.6500 C   0  0  0  0  0  0  0  0  0  0  0  0
   31.8500   27.5400   34.6900 C   0  0  0  0  0  0  0  0  0  0  0  0
   31.5100   27.1200   33.4000 C   0  0  0  0  0  0  0  0  0  0  0  0
   30.2200   26.6300   33.1100 C   0  0  0  0  0  0  0  0  0  0  0  0
   29.2400   26.6600   34.1000 C   0  0  0  0  0  0  0  0  0  0  0  0
   27.9300   26.2600   33.8100 C   0  0  0  0  0  0  0  0  0  0  0  0
   27.5200   25.7100   32.6100 N   0  0  0  0  0  0  0  0  0  0  0  0
   31.1473   28.0588   36.9660 N   0  0  0  0  0  0  0  0  0  0  0  0
   31.1834   27.1334   38.1002 C   0  0  0  0  0  0  0  0  0  0  0  0
   30.4668   27.7626   39.2927 C   0  0  0  0  0  0  0  0  0  0  0  0
   30.9266   29.1781   39.5326 C   0  0  0  0  0  0  0  0  0  0  0  0
   30.7209   29.7703   40.7854 C   0  0  0  0  0  0  0  0  0  0  0  0
   31.0880   31.0981   41.0029 C   0  0  0  0  0  0  0  0  0  0  0  0
   31.6525   31.8376   39.9564 C   0  0  0  0  0  0  0  0  0  0  0  0
   31.8304   31.2517   38.7407 N   0  0  0  0  0  0  0  0  0  0  0  0
   31.4770   29.9606   38.4944 C   0  0  0  0  0  0  0  0  0  0  0  0
   31.7447   29.3889   37.1267 C   0  0  0  0  0  0  0  0  0  0  0  0
   32.0554   33.2674   40.1688 C   0  0  0  0  0  0  0  0  0  0  0  0
   32.5993   33.7966   39.0114 F   0  0  0  0  0  0  0  0  0  0  0  0
   32.9970   33.3401   41.1791 F   0  0  0  0  0  0  0  0  0  0  0  0
   30.9472   34.0143   40.5245 F   0  0  0  0  0  0  0  0  0  0  0  0
  1  2  1  0
  2  3  2  0
  2  4  1  0
  4  5  2  0
  5  6  1  0
  6  7  2  0
  7  8  1  0
  8  9  2  0
  9 10  1  0
 10 11  2  0
 11 12  1  0
 12 13  2  0
 13 14  1  0
  8 15  1  0
 15 16  1  0
 16 17  1  0
 17 18  1  0
 18 19  2  0
 19 20  1  0
 20 21  2  0
 21 22  1  0
 22 23  2  0
 23 24  1  0
 21 25  1  0
 25 26  1  0
 25 27  1  0
 25 28  1  0
 13  4  1  0
 24 15  1  0
 12  7  1  0
 23 18  1  0
M  END
>  <AAScore>  (1) 
-6.48520499958728

>  <RootName>  (1) 
./4ZLY/04_DeltaGEst/trajectory_02/rank_01/lead_0040

$$$$
