confid_17
     RDKit          3D

 28 31  0  0  0  0  0  0  0  0999 V2000
   24.2000   26.2400   35.6900 N   0  0  0  0  0  0  0  0  0  0  0  0
   24.8500   26.2800   34.4800 C   0  0  0  0  0  0  0  0  0  0  0  0
   24.3100   25.7400   33.5400 O   0  0  0  0  0  0  0  0  0  0  0  0
   26.1800   26.9700   34.4700 C   0  0  0  0  0  0  0  0  0  0  0  0
   26.6500   27.6000   35.5500 N   0  0  0  0  0  0  0  0  0  0  0  0
   27.7900   28.2700   35.6200 N   0  0  0  0  0  0  0  0  0  0  0  0
   28.5400   28.3000   34.5100 C   0  0  0  0  0  0  0  0  0  0  0  0
   29.7700   28.9400   34.5600 C   0  0  0  0  0  0  0  0  0  0  0  0
   30.7000   28.8900   33.5000 C   0  0  0  0  0  0  0  0  0  0  0  0
   30.3700   28.1400   32.3700 C   0  0  0  0  0  0  0  0  0  0  0  0
   29.1200   27.5200   32.2800 C   0  0  0  0  0  0  0  0  0  0  0  0
   28.2100   27.6100   33.3300 C   0  0  0  0  0  0  0  0  0  0  0  0
   26.9700   26.9700   33.3100 C   0  0  0  0  0  0  0  0  0  0  0  0
   26.5300   26.2400   32.2200 N   0  0  0  0  0  0  0  0  0  0  0  0
   30.1392   29.6822   35.7372 N   0  0  0  0  0  0  0  0  0  0  0  0
   31.2855   29.2341   36.5392 C   0  0  0  0  0  0  0  0  0  0  0  0
   31.3688   29.9893   37.8700 C   0  0  0  0  0  0  0  0  0  0  0  0
   31.2337   31.4361   37.6535 N   0  0  0  0  0  0  0  0  0  0  0  0
   31.8143   32.3386   38.6127 C   0  0  0  0  0  0  0  0  0  0  0  0
   31.8797   31.9992   39.8251 O   0  0  0  0  0  0  0  0  0  0  0  0
   32.3306   33.6600   38.2160 C   0  0  0  0  0  0  0  0  0  0  0  0
   32.8251   34.0132   36.9633 C   0  0  0  0  0  0  0  0  0  0  0  0
   33.3051   35.3270   36.9075 C   0  0  0  0  0  0  0  0  0  0  0  0
   33.1856   36.0058   38.1135 C   0  0  0  0  0  0  0  0  0  0  0  0
   33.6888   37.3822   38.3907 C   0  0  0  0  0  0  0  0  0  0  0  0
   32.5222   34.9689   39.2584 S   0  0  0  0  0  0  0  0  0  0  0  0
   30.2656   31.9513   36.6699 C   0  0  0  0  0  0  0  0  0  0  0  0
   29.3441   30.8424   36.1550 C   0  0  0  0  0  0  0  0  0  0  0  0
  1  2  1  0
  2  3  2  0
  2  4  1  0
  4  5  2  0
  5  6  1  0
  6  7  2  0
  7  8  1  0
  8  9  2  0
  9 10  1  0
 10 11  2  0
 11 12  1  0
 12 13  2  0
 13 14  1  0
  8 15  1  0
 15 16  1  0
 16 17  1  0
 17 18  1  0
 18 19  1  0
 19 20  2  0
 19 21  1  0
 21 22  2  0
 22 23  1  0
 23 24  2  0
 24 25  1  0
 24 26  1  0
 18 27  1  0
 27 28  1  0
 13  4  1  0
 28 15  1  0
 12  7  1  0
 26 21  1  0
M  END
>  <AAScore>  (1) 
-8.352049808715586

>  <RootName>  (1) 
./4ZLY/04_DeltaGEst/trajectory_04/rank_01/lead_0074

$$$$
