confid_1
     RDKit          3D

 28 31  0  0  0  0  0  0  0  0999 V2000
   24.6900   26.1200   35.5300 N   0  0  0  0  0  0  0  0  0  0  0  0
   25.6600   25.6700   34.6600 C   0  0  0  0  0  0  0  0  0  0  0  0
   25.2400   25.0100   33.7200 O   0  0  0  0  0  0  0  0  0  0  0  0
   27.0300   26.2200   34.8800 C   0  0  0  0  0  0  0  0  0  0  0  0
   27.3500   26.7300   36.0700 N   0  0  0  0  0  0  0  0  0  0  0  0
   28.5700   27.1800   36.3300 N   0  0  0  0  0  0  0  0  0  0  0  0
   29.5300   27.1100   35.3900 C   0  0  0  0  0  0  0  0  0  0  0  0
   30.8300   27.5700   35.6500 C   0  0  0  0  0  0  0  0  0  0  0  0
   31.8500   27.5400   34.6900 C   0  0  0  0  0  0  0  0  0  0  0  0
   31.5100   27.1200   33.4000 C   0  0  0  0  0  0  0  0  0  0  0  0
   30.2200   26.6300   33.1100 C   0  0  0  0  0  0  0  0  0  0  0  0
   29.2400   26.6600   34.1000 C   0  0  0  0  0  0  0  0  0  0  0  0
   27.9300   26.2600   33.8100 C   0  0  0  0  0  0  0  0  0  0  0  0
   27.5200   25.7100   32.6100 N   0  0  0  0  0  0  0  0  0  0  0  0
   23.2807   26.1433   35.2191 C   0  0  0  0  0  0  0  0  0  0  0  0
   22.8927   26.4165   33.9502 N   0  0  0  0  0  0  0  0  0  0  0  0
   21.5950   26.5110   33.5892 C   0  0  0  0  0  0  0  0  0  0  0  0
   20.5681   26.3635   34.5330 C   0  0  0  0  0  0  0  0  0  0  0  0
   19.1580   26.5670   34.0130 C   0  0  0  0  0  0  0  0  0  0  0  0
   18.1789   25.5911   34.5835 C   0  0  0  0  0  0  0  0  0  0  0  0
   17.7375   24.6540   33.8624 O   0  0  0  0  0  0  0  0  0  0  0  0
   17.7433   25.7271   35.9412 N   0  0  0  0  0  0  0  0  0  0  0  0
   18.5078   26.5901   36.8434 C   0  0  0  0  0  0  0  0  0  0  0  0
   19.9096   26.0152   37.0500 C   0  0  0  0  0  0  0  0  0  0  0  0
   20.9227   26.1384   35.9039 C   0  0  0  0  0  0  0  0  0  0  0  0
   22.3038   25.9466   36.2219 C   0  0  0  0  0  0  0  0  0  0  0  0
   22.7502   25.5567   37.6189 C   0  0  0  0  0  0  0  0  0  0  0  0
   16.5942   24.9569   36.4215 C   0  0  0  0  0  0  0  0  0  0  0  0
  1  2  1  0
  2  3  2  0
  2  4  1  0
  4  5  2  0
  5  6  1  0
  6  7  2  0
  7  8  1  0
  8  9  2  0
  9 10  1  0
 10 11  2  0
 11 12  1  0
 12 13  2  0
 13 14  1  0
  1 15  1  0
 15 16  2  0
 16 17  1  0
 17 18  2  0
 18 19  1  0
 19 20  1  0
 20 21  2  0
 20 22  1  0
 22 23  1  0
 23 24  1  0
 24 25  1  0
 25 26  2  0
 26 27  1  0
 22 28  1  0
 13  4  1  0
 26 15  1  0
 12  7  1  0
 25 18  1  0
M  END
>  <AAScore>  (1) 
1686.6686178946454

>  <RootName>  (1) 
./4ZLY/04_DeltaGEst/trajectory_02/rank_00/lead_0211

$$$$
