confid_8
     RDKit          3D

 28 32  0  0  0  0  0  0  0  0999 V2000
   25.3300   26.2600   34.7600 N   0  0  0  0  0  0  0  0  0  0  0  0
   26.1200   25.9200   33.6900 C   0  0  0  0  0  0  0  0  0  0  0  0
   25.6300   25.1100   32.9400 O   0  0  0  0  0  0  0  0  0  0  0  0
   27.5200   26.3800   33.4600 C   0  0  0  0  0  0  0  0  0  0  0  0
   28.1600   26.6300   34.6100 N   0  0  0  0  0  0  0  0  0  0  0  0
   29.4800   26.8500   34.5700 N   0  0  0  0  0  0  0  0  0  0  0  0
   30.1900   26.7800   33.4400 C   0  0  0  0  0  0  0  0  0  0  0  0
   31.5600   27.0500   33.5000 C   0  0  0  0  0  0  0  0  0  0  0  0
   32.2700   27.2400   32.3100 C   0  0  0  0  0  0  0  0  0  0  0  0
   31.6100   27.2500   31.0800 C   0  0  0  0  0  0  0  0  0  0  0  0
   30.2700   26.8700   31.0600 C   0  0  0  0  0  0  0  0  0  0  0  0
   29.5100   26.6900   32.2300 C   0  0  0  0  0  0  0  0  0  0  0  0
   28.1400   26.4100   32.2000 C   0  0  0  0  0  0  0  0  0  0  0  0
   27.4300   26.1300   31.0500 N   0  0  0  0  0  0  0  0  0  0  0  0
   26.3198   26.7337   30.2851 C   0  0  0  0  0  0  0  0  0  0  0  0
   26.2820   25.6846   29.2113 C   0  0  0  0  0  0  0  0  0  0  0  0
   26.6221   26.1385   27.7901 C   0  0  0  0  0  0  0  0  0  0  0  0
   25.8377   25.2648   26.9304 N   0  0  0  0  0  0  0  0  0  0  0  0
   26.1323   25.0949   25.5336 C   0  0  0  0  0  0  0  0  0  0  0  0
   27.3179   25.2262   25.1271 O   0  0  0  0  0  0  0  0  0  0  0  0
   25.0843   24.7684   24.5536 C   0  0  0  0  0  0  0  0  0  0  0  0
   23.7383   25.0662   24.6534 C   0  0  0  0  0  0  0  0  0  0  0  0
   23.1662   24.5960   23.4912 C   0  0  0  0  0  0  0  0  0  0  0  0
   24.1945   24.0487   22.7519 C   0  0  0  0  0  0  0  0  0  0  0  0
   25.3248   24.1712   23.4087 O   0  0  0  0  0  0  0  0  0  0  0  0
   24.9601   24.3676   27.6763 C   0  0  0  0  0  0  0  0  0  0  0  0
   25.0105   24.8337   29.1276 C   0  0  0  0  0  0  0  0  0  0  0  0
   27.4161   25.0877   30.0040 C   0  0  0  0  0  0  0  0  0  0  0  0
  1  2  1  0
  2  3  2  0
  2  4  1  0
  4  5  2  0
  5  6  1  0
  6  7  2  0
  7  8  1  0
  8  9  2  0
  9 10  1  0
 10 11  2  0
 11 12  1  0
 12 13  2  0
 13 14  1  0
 14 15  1  0
 15 16  1  0
 16 17  1  0
 17 18  1  0
 18 19  1  0
 19 20  2  0
 19 21  1  0
 21 22  2  0
 22 23  1  0
 23 24  2  0
 24 25  1  0
 18 26  1  0
 26 27  1  0
 16 28  1  0
 13  4  1  0
 28 14  1  0
 12  7  1  0
 27 16  1  0
 25 21  1  0
M  END
>  <AAScore>  (1) 
12.96419108684982

>  <RootName>  (1) 
./4ZLY/04_DeltaGEst/trajectory_03/rank_01/lead_0335

$$$$
