confid_7
     RDKit          3D

 27 30  0  0  0  0  0  0  0  0999 V2000
   24.5500   26.3900   36.2500 N   0  0  0  0  0  0  0  0  0  0  0  0
   25.6000   26.1300   35.4000 C   0  0  0  0  0  0  0  0  0  0  0  0
   25.4300   25.4300   34.4200 O   0  0  0  0  0  0  0  0  0  0  0  0
   26.9800   26.6300   35.7100 C   0  0  0  0  0  0  0  0  0  0  0  0
   27.3200   26.8200   36.9800 N   0  0  0  0  0  0  0  0  0  0  0  0
   28.4700   27.4000   37.3100 N   0  0  0  0  0  0  0  0  0  0  0  0
   29.4000   27.6300   36.3700 C   0  0  0  0  0  0  0  0  0  0  0  0
   30.6600   28.0500   36.8000 C   0  0  0  0  0  0  0  0  0  0  0  0
   31.5700   28.3600   35.7800 C   0  0  0  0  0  0  0  0  0  0  0  0
   31.3700   28.1000   34.4300 C   0  0  0  0  0  0  0  0  0  0  0  0
   30.1200   27.5900   34.0500 C   0  0  0  0  0  0  0  0  0  0  0  0
   29.1500   27.3400   35.0300 C   0  0  0  0  0  0  0  0  0  0  0  0
   27.8800   26.8900   34.6600 C   0  0  0  0  0  0  0  0  0  0  0  0
   27.4800   26.6100   33.3700 N   0  0  0  0  0  0  0  0  0  0  0  0
   31.0053   28.2821   38.2256 C   0  0  0  0  0  0  0  0  0  0  0  0
   31.5731   29.4966   38.6357 C   0  0  0  0  0  0  0  0  0  0  0  0
   31.8998   29.7090   39.9820 C   0  0  0  0  0  0  0  0  0  0  0  0
   32.5681   30.9947   40.3971 C   0  0  0  0  0  0  0  0  0  0  0  0
   32.4149   31.2701   41.8315 N   0  0  0  0  0  0  0  0  0  0  0  0
   32.6005   32.6369   42.3245 C   0  0  0  0  0  0  0  0  0  0  0  0
   32.2708   30.1898   42.7703 C   0  0  0  0  0  0  0  0  0  0  0  0
   32.3504   30.4160   44.0097 O   0  0  0  0  0  0  0  0  0  0  0  0
   32.0127   28.8582   42.2948 N   0  0  0  0  0  0  0  0  0  0  0  0
   31.6837   28.6724   40.9067 C   0  0  0  0  0  0  0  0  0  0  0  0
   31.1420   27.4968   40.4821 N   0  0  0  0  0  0  0  0  0  0  0  0
   30.8023   27.2808   39.1850 C   0  0  0  0  0  0  0  0  0  0  0  0
   31.8973   27.7436   43.2407 C   0  0  0  0  0  0  0  0  0  0  0  0
  1  2  1  0
  2  3  2  0
  2  4  1  0
  4  5  2  0
  5  6  1  0
  6  7  2  0
  7  8  1  0
  8  9  2  0
  9 10  1  0
 10 11  2  0
 11 12  1  0
 12 13  2  0
 13 14  1  0
  8 15  1  0
 15 16  2  0
 16 17  1  0
 17 18  1  0
 18 19  1  0
 19 20  1  0
 19 21  1  0
 21 22  2  0
 21 23  1  0
 23 24  1  0
 24 25  1  0
 25 26  2  0
 23 27  1  0
 13  4  1  0
 26 15  1  0
 12  7  1  0
 24 17  2  0
M  END
>  <AAScore>  (1) 
935.480382729596

>  <RootName>  (1) 
./4ZLY/04_DeltaGEst/trajectory_01/rank_01/lead_0102

$$$$
