confid_3
     RDKit          3D

 27 29  0  0  0  0  0  0  0  0999 V2000
   24.5700   26.8800   35.5900 N   0  0  0  0  0  0  0  0  0  0  0  0
   25.5000   26.4000   34.6900 C   0  0  0  0  0  0  0  0  0  0  0  0
   25.1700   25.5200   33.9100 O   0  0  0  0  0  0  0  0  0  0  0  0
   26.8400   27.0200   34.7400 C   0  0  0  0  0  0  0  0  0  0  0  0
   27.3800   27.2800   35.9400 N   0  0  0  0  0  0  0  0  0  0  0  0
   28.6200   27.7400   36.0300 N   0  0  0  0  0  0  0  0  0  0  0  0
   29.3800   28.0000   34.9600 C   0  0  0  0  0  0  0  0  0  0  0  0
   30.6700   28.5000   35.1300 C   0  0  0  0  0  0  0  0  0  0  0  0
   31.5400   28.6100   34.0300 C   0  0  0  0  0  0  0  0  0  0  0  0
   31.0900   28.2200   32.7700 C   0  0  0  0  0  0  0  0  0  0  0  0
   29.8000   27.7000   32.6000 C   0  0  0  0  0  0  0  0  0  0  0  0
   28.9600   27.5500   33.7100 C   0  0  0  0  0  0  0  0  0  0  0  0
   27.6600   27.0300   33.5900 C   0  0  0  0  0  0  0  0  0  0  0  0
   27.1600   26.7400   32.3400 N   0  0  0  0  0  0  0  0  0  0  0  0
   33.1594   29.2743   34.2250 S   0  0  0  0  0  6  0  0  0  0  0  0
   34.1216   28.4716   33.3946 O   0  0  0  0  0  0  0  0  0  0  0  0
   33.5787   29.1839   35.6669 O   0  0  0  0  0  0  0  0  0  0  0  0
   33.1744   30.9376   33.6923 N   0  0  0  0  0  0  0  0  0  0  0  0
   32.1849   31.7380   34.4226 C   0  0  0  0  0  0  0  0  0  0  0  0
   32.7993   33.1177   34.6021 C   0  0  2  0  0  0  0  0  0  0  0  0
   34.3058   32.8299   34.7604 C   0  0  0  0  0  0  0  0  0  0  0  0
   34.7214   32.5255   36.2194 C   0  0  0  0  0  0  0  0  0  0  0  0
   35.1597   33.9997   34.2281 C   0  0  0  0  0  0  0  0  0  0  0  0
   34.4931   31.5646   33.8935 C   0  0  0  0  0  0  0  0  0  0  0  0
   32.1218   33.9752   35.6944 C   0  0  0  0  0  0  0  0  0  0  0  0
   31.9971   33.2609   36.9077 O   0  0  0  0  0  0  0  0  0  0  0  0
   31.4211   34.0954   37.8866 C   0  0  0  0  0  0  0  0  0  0  0  0
  1  2  1  0
  2  3  2  0
  2  4  1  0
  4  5  2  0
  5  6  1  0
  6  7  2  0
  7  8  1  0
  8  9  2  0
  9 10  1  0
 10 11  2  0
 11 12  1  0
 12 13  2  0
 13 14  1  0
  9 15  1  0
 15 16  2  0
 15 17  2  0
 15 18  1  0
 18 19  1  0
 19 20  1  0
 20 21  1  0
 21 22  1  0
 21 23  1  0
 21 24  1  0
 20 25  1  1
 25 26  1  0
 26 27  1  0
 13  4  1  0
 24 18  1  0
 12  7  1  0
M  END
>  <AAScore>  (1) 
-6.131363237570932

>  <RootName>  (1) 
./4ZLY/04_DeltaGEst/trajectory_05/rank_01/lead_0273

$$$$
