confid_2
     RDKit          3D

 27 30  0  0  0  0  0  0  0  0999 V2000
   24.2000   26.2400   35.6900 N   0  0  0  0  0  0  0  0  0  0  0  0
   24.8500   26.2800   34.4800 C   0  0  0  0  0  0  0  0  0  0  0  0
   24.3100   25.7400   33.5400 O   0  0  0  0  0  0  0  0  0  0  0  0
   26.1800   26.9700   34.4700 C   0  0  0  0  0  0  0  0  0  0  0  0
   26.6500   27.6000   35.5500 N   0  0  0  0  0  0  0  0  0  0  0  0
   27.7900   28.2700   35.6200 N   0  0  0  0  0  0  0  0  0  0  0  0
   28.5400   28.3000   34.5100 C   0  0  0  0  0  0  0  0  0  0  0  0
   29.7700   28.9400   34.5600 C   0  0  0  0  0  0  0  0  0  0  0  0
   30.7000   28.8900   33.5000 C   0  0  0  0  0  0  0  0  0  0  0  0
   30.3700   28.1400   32.3700 C   0  0  0  0  0  0  0  0  0  0  0  0
   29.1200   27.5200   32.2800 C   0  0  0  0  0  0  0  0  0  0  0  0
   28.2100   27.6100   33.3300 C   0  0  0  0  0  0  0  0  0  0  0  0
   26.9700   26.9700   33.3100 C   0  0  0  0  0  0  0  0  0  0  0  0
   26.5300   26.2400   32.2200 N   0  0  0  0  0  0  0  0  0  0  0  0
   22.7774   26.0990   35.8132 C   0  0  0  0  0  0  0  0  0  0  0  0
   22.2204   25.3167   36.7703 N   0  0  0  0  0  0  0  0  0  0  0  0
   20.9049   25.5307   36.5965 C   0  0  0  0  0  0  0  0  0  0  0  0
   19.8437   25.5561   37.6341 C   0  0  0  0  0  0  0  0  0  0  0  0
   18.8748   26.6415   37.0910 C   0  0  0  0  0  0  0  0  0  0  0  0
   19.5179   27.2100   35.8998 N   0  0  0  0  0  0  0  0  0  0  0  0
   20.6908   26.4521   35.6497 C   0  0  0  0  0  0  0  0  0  0  0  0
   21.8712   26.8720   35.1489 N   0  0  0  0  0  0  0  0  0  0  0  0
   22.1396   28.0880   34.3682 C   0  0  0  0  0  0  0  0  0  0  0  0
   22.6971   29.2181   35.2435 C   0  0  0  0  0  0  0  0  0  0  0  0
   21.7611   29.5980   36.3082 C   0  0  0  0  0  0  0  0  0  0  0  0
   21.0258   29.8982   37.1499 N   0  0  0  0  0  0  0  0  0  0  0  0
   18.8194   28.0471   34.9298 C   0  0  0  0  0  0  0  0  0  0  0  0
  1  2  1  0
  2  3  2  0
  2  4  1  0
  4  5  2  0
  5  6  1  0
  6  7  2  0
  7  8  1  0
  8  9  2  0
  9 10  1  0
 10 11  2  0
 11 12  1  0
 12 13  2  0
 13 14  1  0
  1 15  1  0
 15 16  2  0
 16 17  1  0
 17 18  1  0
 18 19  1  0
 19 20  1  0
 20 21  1  0
 21 22  1  0
 22 23  1  0
 23 24  1  0
 24 25  1  0
 25 26  3  0
 20 27  1  0
 13  4  1  0
 22 15  1  0
 12  7  1  0
 21 17  2  0
M  END
>  <AAScore>  (1) 
511.32581241401806

>  <RootName>  (1) 
./4ZLY/04_DeltaGEst/trajectory_04/rank_00/lead_0301

$$$$
