confid_18
     RDKit          3D

 31 34  0  0  0  0  0  0  0  0999 V2000
   24.2000   26.2400   35.6900 N   0  0  0  0  0  0  0  0  0  0  0  0
   24.8500   26.2800   34.4800 C   0  0  0  0  0  0  0  0  0  0  0  0
   24.3100   25.7400   33.5400 O   0  0  0  0  0  0  0  0  0  0  0  0
   26.1800   26.9700   34.4700 C   0  0  0  0  0  0  0  0  0  0  0  0
   26.6500   27.6000   35.5500 N   0  0  0  0  0  0  0  0  0  0  0  0
   27.7900   28.2700   35.6200 N   0  0  0  0  0  0  0  0  0  0  0  0
   28.5400   28.3000   34.5100 C   0  0  0  0  0  0  0  0  0  0  0  0
   29.7700   28.9400   34.5600 C   0  0  0  0  0  0  0  0  0  0  0  0
   30.7000   28.8900   33.5000 C   0  0  0  0  0  0  0  0  0  0  0  0
   30.3700   28.1400   32.3700 C   0  0  0  0  0  0  0  0  0  0  0  0
   29.1200   27.5200   32.2800 C   0  0  0  0  0  0  0  0  0  0  0  0
   28.2100   27.6100   33.3300 C   0  0  0  0  0  0  0  0  0  0  0  0
   26.9700   26.9700   33.3100 C   0  0  0  0  0  0  0  0  0  0  0  0
   26.5300   26.2400   32.2200 N   0  0  0  0  0  0  0  0  0  0  0  0
   22.7977   25.9739   35.8124 C   0  0  0  0  0  0  0  0  0  0  0  0
   22.4290   24.7806   36.1783 N   0  0  0  0  0  0  0  0  0  0  0  0
   21.1230   24.2501   36.4625 C   0  0  0  0  0  0  0  0  0  0  0  0
   20.1083   24.1800   35.5763 C   0  0  0  0  0  0  0  0  0  0  0  0
   19.1162   23.0444   35.6824 C   0  0  0  0  0  0  0  0  0  0  0  0
   18.8477   22.4363   34.3504 N   0  0  0  0  0  0  0  0  0  0  0  0
   19.9716   22.5850   33.3922 C   0  0  0  0  0  0  0  0  0  0  0  0
   20.3480   24.0702   33.1469 C   0  0  0  0  0  0  0  0  0  0  0  0
   20.0838   24.9000   34.3361 N   0  0  0  0  0  0  0  0  0  0  0  0
   19.0777   25.9782   34.2258 C   0  0  0  0  0  0  0  0  0  0  0  0
   19.4979   27.1213   33.2813 C   0  0  0  0  0  0  0  0  0  0  0  0
   20.3680   28.1092   33.9584 N   0  0  0  0  0  0  0  0  0  0  0  0
   20.4579   29.3314   33.1417 C   0  0  0  0  0  0  0  0  0  0  0  0
   21.7152   27.5539   34.2105 C   0  0  0  0  0  0  0  0  0  0  0  0
   21.8397   27.1244   35.6799 C   0  0  0  0  0  0  0  0  0  0  0  0
   17.5312   22.7847   33.7678 C   0  0  0  0  0  0  0  0  0  0  0  0
   16.6562   21.5406   33.7293 C   0  0  0  0  0  0  0  0  0  0  0  0
  1  2  1  0
  2  3  2  0
  2  4  1  0
  4  5  2  0
  5  6  1  0
  6  7  2  0
  7  8  1  0
  8  9  2  0
  9 10  1  0
 10 11  2  0
 11 12  1  0
 12 13  2  0
 13 14  1  0
  1 15  1  0
 15 16  2  0
 16 17  1  0
 17 18  2  0
 18 19  1  0
 19 20  1  0
 20 21  1  0
 21 22  1  0
 22 23  1  0
 23 24  1  0
 24 25  1  0
 25 26  1  0
 26 27  1  0
 26 28  1  0
 28 29  1  0
 20 30  1  0
 30 31  1  0
 13  4  1  0
 29 15  1  0
 12  7  1  0
 23 18  1  0
M  END
>  <AAScore>  (1) 
8101.49314210093

>  <RootName>  (1) 
./4ZLY/04_DeltaGEst/trajectory_04/rank_00/lead_0278

$$$$
