confid_17
     RDKit          3D

 29 32  0  0  0  0  0  0  0  0999 V2000
   24.5500   26.3900   36.2500 N   0  0  0  0  0  0  0  0  0  0  0  0
   25.6000   26.1300   35.4000 C   0  0  0  0  0  0  0  0  0  0  0  0
   25.4300   25.4300   34.4200 O   0  0  0  0  0  0  0  0  0  0  0  0
   26.9800   26.6300   35.7100 C   0  0  0  0  0  0  0  0  0  0  0  0
   27.3200   26.8200   36.9800 N   0  0  0  0  0  0  0  0  0  0  0  0
   28.4700   27.4000   37.3100 N   0  0  0  0  0  0  0  0  0  0  0  0
   29.4000   27.6300   36.3700 C   0  0  0  0  0  0  0  0  0  0  0  0
   30.6600   28.0500   36.8000 C   0  0  0  0  0  0  0  0  0  0  0  0
   31.5700   28.3600   35.7800 C   0  0  0  0  0  0  0  0  0  0  0  0
   31.3700   28.1000   34.4300 C   0  0  0  0  0  0  0  0  0  0  0  0
   30.1200   27.5900   34.0500 C   0  0  0  0  0  0  0  0  0  0  0  0
   29.1500   27.3400   35.0300 C   0  0  0  0  0  0  0  0  0  0  0  0
   27.8800   26.8900   34.6600 C   0  0  0  0  0  0  0  0  0  0  0  0
   27.4800   26.6100   33.3700 N   0  0  0  0  0  0  0  0  0  0  0  0
   23.1787   25.9176   36.0040 C   0  0  1  0  0  0  0  0  0  0  0  0
   22.3982   25.8028   37.3468 C   0  0  0  0  0  0  0  0  0  0  0  0
   20.8648   25.6610   37.2404 C   0  0  0  0  0  0  0  0  0  0  0  0
   20.2070   26.8052   36.5631 N   0  0  0  0  0  0  0  0  0  0  0  0
   20.1778   28.0379   37.3792 C   0  0  0  0  0  0  0  0  0  0  0  0
   21.5271   28.7102   37.4405 C   0  0  0  0  0  0  0  0  0  0  0  0
   22.4538   28.7427   36.4489 N   0  0  0  0  0  0  0  0  0  0  0  0
   23.5483   29.3466   36.8872 N   0  0  0  0  0  0  0  0  0  0  0  0
   23.3397   29.7091   38.1666 C   0  0  0  0  0  0  0  0  0  0  0  0
   24.3897   30.3303   39.0286 C   0  0  0  0  0  0  0  0  0  0  0  0
   22.0635   29.3356   38.5553 C   0  0  0  0  0  0  0  0  0  0  0  0
   21.4657   29.4189   39.9290 C   0  0  0  0  0  0  0  0  0  0  0  0
   22.3211   28.2734   35.0687 C   0  0  0  0  0  0  0  0  0  0  0  0
   22.5137   26.7461   34.8716 C   0  0  0  0  0  0  0  0  0  0  0  0
   18.8344   26.4329   36.1806 C   0  0  0  0  0  0  0  0  0  0  0  0
  1  2  1  0
  2  3  2  0
  2  4  1  0
  4  5  2  0
  5  6  1  0
  6  7  2  0
  7  8  1  0
  8  9  2  0
  9 10  1  0
 10 11  2  0
 11 12  1  0
 12 13  2  0
 13 14  1  0
 15  1  1  1
 15 16  1  0
 16 17  1  0
 17 18  1  0
 18 19  1  0
 19 20  1  0
 20 21  1  0
 21 22  1  0
 22 23  2  0
 23 24  1  0
 23 25  1  0
 25 26  1  0
 21 27  1  0
 27 28  1  0
 18 29  1  0
 13  4  1  0
 28 15  1  0
 12  7  1  0
 25 20  2  0
M  END
>  <AAScore>  (1) 
4537.461825652218

>  <RootName>  (1) 
./4ZLY/04_DeltaGEst/trajectory_01/rank_00/lead_0076

$$$$
