confid_4
     RDKit          3D

 27 30  0  0  0  0  0  0  0  0999 V2000
   24.4800   26.1000   36.1300 N   0  0  0  0  0  0  0  0  0  0  0  0
   25.2500   26.2500   34.9900 C   0  0  0  0  0  0  0  0  0  0  0  0
   24.7400   25.7600   33.9900 O   0  0  0  0  0  0  0  0  0  0  0  0
   26.5900   26.8900   34.9600 C   0  0  0  0  0  0  0  0  0  0  0  0
   27.0600   27.2400   36.1600 N   0  0  0  0  0  0  0  0  0  0  0  0
   28.3000   27.7100   36.2400 N   0  0  0  0  0  0  0  0  0  0  0  0
   29.0500   27.9600   35.1500 C   0  0  0  0  0  0  0  0  0  0  0  0
   30.3400   28.4900   35.2600 C   0  0  0  0  0  0  0  0  0  0  0  0
   31.1100   28.8200   34.1400 C   0  0  0  0  0  0  0  0  0  0  0  0
   30.5200   28.6700   32.8800 C   0  0  0  0  0  0  0  0  0  0  0  0
   29.2900   28.0200   32.7700 C   0  0  0  0  0  0  0  0  0  0  0  0
   28.5200   27.7100   33.8900 C   0  0  0  0  0  0  0  0  0  0  0  0
   27.2700   27.0800   33.7600 C   0  0  0  0  0  0  0  0  0  0  0  0
   26.7500   26.8800   32.4900 N   0  0  0  0  0  0  0  0  0  0  0  0
   23.6039   24.9877   36.3704 C   0  0  0  0  0  0  0  0  0  0  0  0
   22.6628   25.0154   37.2634 N   0  0  0  0  0  0  0  0  0  0  0  0
   22.0544   23.7149   37.2698 C   0  0  0  0  0  0  0  0  0  0  0  0
   22.6050   22.9406   36.3432 C   0  0  0  0  0  0  0  0  0  0  0  0
   22.9611   21.4979   36.4078 C   0  0  0  0  0  0  0  0  0  0  0  0
   24.3032   21.5078   35.8180 N   0  0  0  0  0  0  0  0  0  0  0  0
   25.1494   20.3249   35.6805 C   0  0  0  0  0  0  0  0  0  0  0  0
   25.1579   19.8492   34.2334 C   0  0  0  0  0  0  0  0  0  0  0  0
   24.6843   22.8580   35.5056 C   0  0  0  0  0  0  0  0  0  0  0  0
   26.0513   23.2936   35.5055 N   0  0  0  0  0  0  0  0  0  0  0  0
   26.8409   23.1608   34.2844 C   0  0  0  0  0  0  0  0  0  0  0  0
   26.7458   23.4763   36.7789 C   0  0  0  0  0  0  0  0  0  0  0  0
   23.6662   23.6729   35.7439 C   0  0  0  0  0  0  0  0  0  0  0  0
  1  2  1  0
  2  3  2  0
  2  4  1  0
  4  5  2  0
  5  6  1  0
  6  7  2  0
  7  8  1  0
  8  9  2  0
  9 10  1  0
 10 11  2  0
 11 12  1  0
 12 13  2  0
 13 14  1  0
  1 15  1  0
 15 16  2  0
 16 17  1  0
 17 18  2  0
 18 19  1  0
 19 20  1  0
 20 21  1  0
 21 22  1  0
 20 23  1  0
 23 24  1  0
 24 25  1  0
 24 26  1  0
 23 27  2  0
 13  4  1  0
 27 15  1  0
 12  7  1  0
 27 18  1  0
M  END
>  <AAScore>  (1) 
1568.9735609150953

>  <RootName>  (1) 
./4ZLY/04_DeltaGEst/trajectory_00/rank_00/lead_0123

$$$$
