confid_18
     RDKit          3D

 28 30  0  0  0  0  0  0  0  0999 V2000
   24.2000   26.2400   35.6900 N   0  0  0  0  0  0  0  0  0  0  0  0
   24.8500   26.2800   34.4800 C   0  0  0  0  0  0  0  0  0  0  0  0
   24.3100   25.7400   33.5400 O   0  0  0  0  0  0  0  0  0  0  0  0
   26.1800   26.9700   34.4700 C   0  0  0  0  0  0  0  0  0  0  0  0
   26.6500   27.6000   35.5500 N   0  0  0  0  0  0  0  0  0  0  0  0
   27.7900   28.2700   35.6200 N   0  0  0  0  0  0  0  0  0  0  0  0
   28.5400   28.3000   34.5100 C   0  0  0  0  0  0  0  0  0  0  0  0
   29.7700   28.9400   34.5600 C   0  0  0  0  0  0  0  0  0  0  0  0
   30.7000   28.8900   33.5000 C   0  0  0  0  0  0  0  0  0  0  0  0
   30.3700   28.1400   32.3700 C   0  0  0  0  0  0  0  0  0  0  0  0
   29.1200   27.5200   32.2800 C   0  0  0  0  0  0  0  0  0  0  0  0
   28.2100   27.6100   33.3300 C   0  0  0  0  0  0  0  0  0  0  0  0
   26.9700   26.9700   33.3100 C   0  0  0  0  0  0  0  0  0  0  0  0
   26.5300   26.2400   32.2200 N   0  0  0  0  0  0  0  0  0  0  0  0
   30.1489   29.6825   35.7397 N   0  0  0  0  0  0  0  0  0  0  0  0
   30.5069   28.8943   36.9330 C   0  0  0  0  0  0  0  0  0  0  0  0
   29.7324   29.3434   38.1698 C   0  0  0  0  0  0  0  0  0  0  0  0
   29.7522   30.7872   38.4111 N   0  0  0  0  0  0  0  0  0  0  0  0
   30.7894   31.6810   37.9727 C   0  0  0  0  0  0  0  0  0  0  0  0
   31.1460   32.6219   38.7323 O   0  0  0  0  0  0  0  0  0  0  0  0
   31.4683   31.5633   36.6336 C   0  0  0  0  0  0  0  0  0  0  0  0
   30.6215   31.0118   35.5547 N   0  0  0  0  0  0  0  0  0  0  0  0
   29.6286   31.9281   34.9432 C   0  0  0  0  0  0  0  0  0  0  0  0
   28.3829   32.2291   35.7914 C   0  0  0  0  0  0  0  0  0  0  0  0
   27.8339   31.0748   36.3125 F   0  0  0  0  0  0  0  0  0  0  0  0
   28.6901   33.1052   36.8144 F   0  0  0  0  0  0  0  0  0  0  0  0
   27.4337   32.8326   34.9867 F   0  0  0  0  0  0  0  0  0  0  0  0
   28.6478   31.3681   39.6319 Cl  0  0  0  0  0  0  0  0  0  0  0  0
  1  2  1  0
  2  3  2  0
  2  4  1  0
  4  5  2  0
  5  6  1  0
  6  7  2  0
  7  8  1  0
  8  9  2  0
  9 10  1  0
 10 11  2  0
 11 12  1  0
 12 13  2  0
 13 14  1  0
  8 15  1  0
 15 16  1  0
 16 17  1  0
 17 18  1  0
 18 19  1  0
 19 20  2  0
 19 21  1  0
 21 22  1  0
 22 23  1  0
 23 24  1  0
 24 25  1  0
 24 26  1  0
 24 27  1  0
 18 28  1  0
 13  4  1  0
 22 15  1  0
 12  7  1  0
M  END
>  <AAScore>  (1) 
-6.802685333379985

>  <RootName>  (1) 
./4ZLY/04_DeltaGEst/trajectory_04/rank_01/lead_0189

$$$$
