confid_17
     RDKit          3D

 27 30  0  0  0  0  0  0  0  0999 V2000
   24.5500   26.3900   36.2500 N   0  0  0  0  0  0  0  0  0  0  0  0
   25.6000   26.1300   35.4000 C   0  0  0  0  0  0  0  0  0  0  0  0
   25.4300   25.4300   34.4200 O   0  0  0  0  0  0  0  0  0  0  0  0
   26.9800   26.6300   35.7100 C   0  0  0  0  0  0  0  0  0  0  0  0
   27.3200   26.8200   36.9800 N   0  0  0  0  0  0  0  0  0  0  0  0
   28.4700   27.4000   37.3100 N   0  0  0  0  0  0  0  0  0  0  0  0
   29.4000   27.6300   36.3700 C   0  0  0  0  0  0  0  0  0  0  0  0
   30.6600   28.0500   36.8000 C   0  0  0  0  0  0  0  0  0  0  0  0
   31.5700   28.3600   35.7800 C   0  0  0  0  0  0  0  0  0  0  0  0
   31.3700   28.1000   34.4300 C   0  0  0  0  0  0  0  0  0  0  0  0
   30.1200   27.5900   34.0500 C   0  0  0  0  0  0  0  0  0  0  0  0
   29.1500   27.3400   35.0300 C   0  0  0  0  0  0  0  0  0  0  0  0
   27.8800   26.8900   34.6600 C   0  0  0  0  0  0  0  0  0  0  0  0
   27.4800   26.6100   33.3700 N   0  0  0  0  0  0  0  0  0  0  0  0
   30.9927   28.2786   38.2219 C   0  0  0  0  0  0  0  0  0  0  0  0
   30.8958   27.3307   39.2268 C   0  0  0  0  0  0  0  0  0  0  0  0
   31.2166   27.9890   40.3952 C   0  0  0  0  0  0  0  0  0  0  0  0
   31.2582   27.3989   41.7748 C   0  0  0  0  0  0  0  0  0  0  0  0
   31.1292   28.4516   42.8088 N   0  0  0  0  0  0  0  0  0  0  0  0
   29.7221   28.8792   42.9495 C   0  0  0  0  0  0  0  0  0  0  0  0
   32.0763   29.5705   42.5427 C   0  0  2  0  0  0  0  0  0  0  0  0
   32.1241   30.5784   43.6990 C   0  0  0  0  0  0  0  0  0  0  0  0
   31.7984   30.2703   41.1899 C   0  0  0  0  0  0  0  0  0  0  0  0
   31.5251   29.2756   40.1503 N   0  0  0  0  0  0  0  0  0  0  0  0
   31.3805   29.4745   38.8211 C   0  0  0  0  0  0  0  0  0  0  0  0
   31.4082   30.8269   38.1572 C   0  0  0  0  0  0  0  0  0  0  0  0
   30.0070   31.4250   38.1013 C   0  0  0  0  0  0  0  0  0  0  0  0
  1  2  1  0
  2  3  2  0
  2  4  1  0
  4  5  2  0
  5  6  1  0
  6  7  2  0
  7  8  1  0
  8  9  2  0
  9 10  1  0
 10 11  2  0
 11 12  1  0
 12 13  2  0
 13 14  1  0
  8 15  1  0
 15 16  1  0
 16 17  2  0
 17 18  1  0
 18 19  1  0
 19 20  1  0
 19 21  1  0
 21 22  1  1
 21 23  1  0
 23 24  1  0
 24 25  1  0
 25 26  1  0
 26 27  1  0
 13  4  1  0
 25 15  2  0
 12  7  1  0
 24 17  1  0
M  END
>  <AAScore>  (1) 
201.61940147805265

>  <RootName>  (1) 
./4ZLY/04_DeltaGEst/trajectory_01/rank_01/lead_0302

$$$$
