confid_3
     RDKit          3D

 25 28  0  0  0  0  0  0  0  0999 V2000
   24.5500   26.3900   36.2500 N   0  0  0  0  0  0  0  0  0  0  0  0
   25.6000   26.1300   35.4000 C   0  0  0  0  0  0  0  0  0  0  0  0
   25.4300   25.4300   34.4200 O   0  0  0  0  0  0  0  0  0  0  0  0
   26.9800   26.6300   35.7100 C   0  0  0  0  0  0  0  0  0  0  0  0
   27.3200   26.8200   36.9800 N   0  0  0  0  0  0  0  0  0  0  0  0
   28.4700   27.4000   37.3100 N   0  0  0  0  0  0  0  0  0  0  0  0
   29.4000   27.6300   36.3700 C   0  0  0  0  0  0  0  0  0  0  0  0
   30.6600   28.0500   36.8000 C   0  0  0  0  0  0  0  0  0  0  0  0
   31.5700   28.3600   35.7800 C   0  0  0  0  0  0  0  0  0  0  0  0
   31.3700   28.1000   34.4300 C   0  0  0  0  0  0  0  0  0  0  0  0
   30.1200   27.5900   34.0500 C   0  0  0  0  0  0  0  0  0  0  0  0
   29.1500   27.3400   35.0300 C   0  0  0  0  0  0  0  0  0  0  0  0
   27.8800   26.8900   34.6600 C   0  0  0  0  0  0  0  0  0  0  0  0
   27.4800   26.6100   33.3700 N   0  0  0  0  0  0  0  0  0  0  0  0
   31.0200   28.3055   38.2166 C   0  0  0  0  0  0  0  0  0  0  0  0
   30.1975   28.8441   39.2079 C   0  0  0  0  0  0  0  0  0  0  0  0
   30.8443   28.9799   40.4407 C   0  0  0  0  0  0  0  0  0  0  0  0
   30.2097   29.4750   41.5806 O   0  0  0  0  0  0  0  0  0  0  0  0
   29.7643   28.6241   42.6359 C   0  0  0  0  0  0  0  0  0  0  0  0
   30.9217   28.0831   43.4924 C   0  0  0  0  0  0  0  0  0  0  0  0
   31.7791   27.0290   42.7521 C   0  0  0  0  0  0  0  0  0  0  0  0
   33.0857   27.4700   42.4090 O   0  0  0  0  0  0  0  0  0  0  0  0
   33.1089   28.6348   41.5973 C   0  0  0  0  0  0  0  0  0  0  0  0
   32.1745   28.5875   40.4232 C   0  0  0  0  0  0  0  0  0  0  0  0
   32.5496   28.0373   38.8811 S   0  0  0  0  0  0  0  0  0  0  0  0
  1  2  1  0
  2  3  2  0
  2  4  1  0
  4  5  2  0
  5  6  1  0
  6  7  2  0
  7  8  1  0
  8  9  2  0
  9 10  1  0
 10 11  2  0
 11 12  1  0
 12 13  2  0
 13 14  1  0
  8 15  1  0
 15 16  2  0
 16 17  1  0
 17 18  1  0
 18 19  1  0
 19 20  1  0
 20 21  1  0
 21 22  1  0
 22 23  1  0
 23 24  1  0
 24 25  1  0
 13  4  1  0
 25 15  1  0
 12  7  1  0
 24 17  2  0
M  END
>  <AAScore>  (1) 
512.5378288621952

>  <RootName>  (1) 
./4ZLY/04_DeltaGEst/trajectory_01/rank_01/lead_0004

$$$$
