confid_9
     RDKit          3D

 28 32  0  0  0  0  0  0  0  0999 V2000
   24.4800   26.1000   36.1300 N   0  0  0  0  0  0  0  0  0  0  0  0
   25.2500   26.2500   34.9900 C   0  0  0  0  0  0  0  0  0  0  0  0
   24.7400   25.7600   33.9900 O   0  0  0  0  0  0  0  0  0  0  0  0
   26.5900   26.8900   34.9600 C   0  0  0  0  0  0  0  0  0  0  0  0
   27.0600   27.2400   36.1600 N   0  0  0  0  0  0  0  0  0  0  0  0
   28.3000   27.7100   36.2400 N   0  0  0  0  0  0  0  0  0  0  0  0
   29.0500   27.9600   35.1500 C   0  0  0  0  0  0  0  0  0  0  0  0
   30.3400   28.4900   35.2600 C   0  0  0  0  0  0  0  0  0  0  0  0
   31.1100   28.8200   34.1400 C   0  0  0  0  0  0  0  0  0  0  0  0
   30.5200   28.6700   32.8800 C   0  0  0  0  0  0  0  0  0  0  0  0
   29.2900   28.0200   32.7700 C   0  0  0  0  0  0  0  0  0  0  0  0
   28.5200   27.7100   33.8900 C   0  0  0  0  0  0  0  0  0  0  0  0
   27.2700   27.0800   33.7600 C   0  0  0  0  0  0  0  0  0  0  0  0
   26.7500   26.8800   32.4900 N   0  0  0  0  0  0  0  0  0  0  0  0
   23.0413   26.0605   36.1519 C   0  0  0  0  0  0  0  0  0  0  0  0
   22.4823   25.6594   37.2634 N   0  0  0  0  0  0  0  0  0  0  0  0
   21.1047   25.6145   37.5913 C   0  0  0  0  0  0  0  0  0  0  0  0
   20.3582   26.6730   37.3809 C   0  0  0  0  0  0  0  0  0  0  0  0
   19.0383   27.1777   36.8527 C   0  0  2  0  0  0  0  0  0  0  0  0
   18.8590   26.6729   35.4057 C   0  0  0  0  0  0  0  0  0  0  0  0
   19.9836   25.8188   34.9290 N   0  0  0  0  0  0  0  0  0  0  0  0
   19.6781   24.5321   34.2874 C   0  0  0  0  0  0  0  0  0  0  0  0
   20.0042   24.5847   32.7707 C   0  0  0  0  0  0  0  0  0  0  0  0
   20.0282   25.9701   32.2584 N   0  0  0  0  0  0  0  0  0  0  0  0
   21.0615   26.7909   32.9247 C   0  0  0  0  0  0  0  0  0  0  0  0
   21.1438   26.4708   34.3917 C   0  0  0  0  0  0  0  0  0  0  0  0
   22.3328   26.4766   34.9477 N   0  0  0  0  0  0  0  0  0  0  0  0
   20.0680   28.1433   37.0745 C   0  0  0  0  0  0  0  0  0  0  0  0
  1  2  1  0
  2  3  2  0
  2  4  1  0
  4  5  2  0
  5  6  1  0
  6  7  2  0
  7  8  1  0
  8  9  2  0
  9 10  1  0
 10 11  2  0
 11 12  1  0
 12 13  2  0
 13 14  1  0
  1 15  1  0
 15 16  2  0
 16 17  1  0
 17 18  2  0
 18 19  1  0
 19 20  1  6
 20 21  1  0
 21 22  1  0
 22 23  1  0
 23 24  1  0
 24 25  1  0
 25 26  1  0
 26 27  2  0
 19 28  1  0
 13  4  1  0
 27 15  1  0
 12  7  1  0
 28 18  1  0
 26 21  1  0
M  END
>  <AAScore>  (1) 
1634.3428433686734

>  <RootName>  (1) 
./4ZLY/04_DeltaGEst/trajectory_00/rank_00/lead_0370

$$$$
