confid_3
     RDKit          3D

 28 31  0  0  0  0  0  0  0  0999 V2000
   25.3300   26.2600   34.7600 N   0  0  0  0  0  0  0  0  0  0  0  0
   26.1200   25.9200   33.6900 C   0  0  0  0  0  0  0  0  0  0  0  0
   25.6300   25.1100   32.9400 O   0  0  0  0  0  0  0  0  0  0  0  0
   27.5200   26.3800   33.4600 C   0  0  0  0  0  0  0  0  0  0  0  0
   28.1600   26.6300   34.6100 N   0  0  0  0  0  0  0  0  0  0  0  0
   29.4800   26.8500   34.5700 N   0  0  0  0  0  0  0  0  0  0  0  0
   30.1900   26.7800   33.4400 C   0  0  0  0  0  0  0  0  0  0  0  0
   31.5600   27.0500   33.5000 C   0  0  0  0  0  0  0  0  0  0  0  0
   32.2700   27.2400   32.3100 C   0  0  0  0  0  0  0  0  0  0  0  0
   31.6100   27.2500   31.0800 C   0  0  0  0  0  0  0  0  0  0  0  0
   30.2700   26.8700   31.0600 C   0  0  0  0  0  0  0  0  0  0  0  0
   29.5100   26.6900   32.2300 C   0  0  0  0  0  0  0  0  0  0  0  0
   28.1400   26.4100   32.2000 C   0  0  0  0  0  0  0  0  0  0  0  0
   27.4300   26.1300   31.0500 N   0  0  0  0  0  0  0  0  0  0  0  0
   26.4685   27.1318   30.5649 C   0  0  0  0  0  0  0  0  0  0  0  0
   26.9746   27.8044   29.2844 C   0  0  0  0  0  0  0  0  0  0  0  0
   27.2947   26.8237   28.2362 N   0  0  0  0  0  0  0  0  0  0  0  0
   26.2770   25.8993   27.8167 C   0  0  0  0  0  0  0  0  0  0  0  0
   25.5319   26.2000   26.6679 C   0  0  0  0  0  0  0  0  0  0  0  0
   24.5400   25.3254   26.2370 C   0  0  0  0  0  0  0  0  0  0  0  0
   24.2931   24.1849   26.9272 N   0  0  0  0  0  0  0  0  0  0  0  0
   24.9922   23.8588   28.0440 C   0  0  0  0  0  0  0  0  0  0  0  0
   26.0083   24.6984   28.5291 C   0  0  0  0  0  0  0  0  0  0  0  0
   26.7190   24.2424   29.7941 C   0  0  0  0  0  0  0  0  0  0  0  0
   27.8563   25.0862   30.1880 N   0  0  0  0  0  0  0  0  0  0  0  0
   28.4787   27.0184   27.3844 C   0  0  0  0  0  0  0  0  0  0  0  0
   29.2738   25.7149   27.2238 C   0  0  0  0  0  0  0  0  0  0  0  0
   30.4863   25.9170   26.3204 C   0  0  0  0  0  0  0  0  0  0  0  0
  1  2  1  0
  2  3  2  0
  2  4  1  0
  4  5  2  0
  5  6  1  0
  6  7  2  0
  7  8  1  0
  8  9  2  0
  9 10  1  0
 10 11  2  0
 11 12  1  0
 12 13  2  0
 13 14  1  0
 14 15  1  0
 15 16  1  0
 16 17  1  0
 17 18  1  0
 18 19  2  0
 19 20  1  0
 20 21  2  0
 21 22  1  0
 22 23  2  0
 23 24  1  0
 24 25  1  0
 17 26  1  0
 26 27  1  0
 27 28  1  0
 13  4  1  0
 25 14  1  0
 12  7  1  0
 23 18  1  0
M  END
>  <AAScore>  (1) 
400.68616749225873

>  <RootName>  (1) 
./4ZLY/04_DeltaGEst/trajectory_03/rank_01/lead_0381

$$$$
