confid_10
     RDKit          3D

 27 30  0  0  0  0  0  0  0  0999 V2000
   24.6900   26.1200   35.5300 N   0  0  0  0  0  0  0  0  0  0  0  0
   25.6600   25.6700   34.6600 C   0  0  0  0  0  0  0  0  0  0  0  0
   25.2400   25.0100   33.7200 O   0  0  0  0  0  0  0  0  0  0  0  0
   27.0300   26.2200   34.8800 C   0  0  0  0  0  0  0  0  0  0  0  0
   27.3500   26.7300   36.0700 N   0  0  0  0  0  0  0  0  0  0  0  0
   28.5700   27.1800   36.3300 N   0  0  0  0  0  0  0  0  0  0  0  0
   29.5300   27.1100   35.3900 C   0  0  0  0  0  0  0  0  0  0  0  0
   30.8300   27.5700   35.6500 C   0  0  0  0  0  0  0  0  0  0  0  0
   31.8500   27.5400   34.6900 C   0  0  0  0  0  0  0  0  0  0  0  0
   31.5100   27.1200   33.4000 C   0  0  0  0  0  0  0  0  0  0  0  0
   30.2200   26.6300   33.1100 C   0  0  0  0  0  0  0  0  0  0  0  0
   29.2400   26.6600   34.1000 C   0  0  0  0  0  0  0  0  0  0  0  0
   27.9300   26.2600   33.8100 C   0  0  0  0  0  0  0  0  0  0  0  0
   27.5200   25.7100   32.6100 N   0  0  0  0  0  0  0  0  0  0  0  0
   23.4911   25.3904   35.8359 C   0  0  0  0  0  0  0  0  0  0  0  0
   22.3772   25.9941   36.2968 N   0  0  0  0  0  0  0  0  0  0  0  0
   21.5360   24.9751   36.5619 C   0  0  0  0  0  0  0  0  0  0  0  0
   22.1525   23.7725   36.2690 C   0  0  0  0  0  0  0  0  0  0  0  0
   21.5873   22.4002   36.5790 C   0  0  2  0  0  0  0  0  0  0  0  0
   22.6770   21.3162   36.5086 C   0  0  0  0  0  0  0  0  0  0  0  0
   23.1982   21.2482   35.1999 O   0  0  0  0  0  0  0  0  0  0  0  0
   24.4405   21.9098   35.0962 C   0  0  0  0  0  0  0  0  0  0  0  0
   24.4690   23.1836   35.7453 O   0  0  0  0  0  0  0  0  0  0  0  0
   23.3889   24.0452   35.7979 N   0  0  0  0  0  0  0  0  0  0  0  0
   20.3421   22.0281   35.7003 C   0  0  0  0  0  0  0  0  0  0  0  0
   19.0388   22.6102   36.2706 C   0  0  0  0  0  0  0  0  0  0  0  0
   20.4781   22.4215   34.2167 C   0  0  0  0  0  0  0  0  0  0  0  0
  1  2  1  0
  2  3  2  0
  2  4  1  0
  4  5  2  0
  5  6  1  0
  6  7  2  0
  7  8  1  0
  8  9  2  0
  9 10  1  0
 10 11  2  0
 11 12  1  0
 12 13  2  0
 13 14  1  0
  1 15  1  0
 15 16  2  0
 16 17  1  0
 17 18  2  0
 18 19  1  0
 19 20  1  0
 20 21  1  0
 21 22  1  0
 22 23  1  0
 23 24  1  0
 19 25  1  6
 25 26  1  0
 25 27  1  0
 13  4  1  0
 24 15  1  0
 12  7  1  0
 24 18  1  0
M  END
>  <AAScore>  (1) 
2963.599363095859

>  <RootName>  (1) 
./4ZLY/04_DeltaGEst/trajectory_02/rank_00/lead_0072

$$$$
