confid_12
     RDKit          3D

 28 31  0  0  0  0  0  0  0  0999 V2000
   24.6900   26.1200   35.5300 N   0  0  0  0  0  0  0  0  0  0  0  0
   25.6600   25.6700   34.6600 C   0  0  0  0  0  0  0  0  0  0  0  0
   25.2400   25.0100   33.7200 O   0  0  0  0  0  0  0  0  0  0  0  0
   27.0300   26.2200   34.8800 C   0  0  0  0  0  0  0  0  0  0  0  0
   27.3500   26.7300   36.0700 N   0  0  0  0  0  0  0  0  0  0  0  0
   28.5700   27.1800   36.3300 N   0  0  0  0  0  0  0  0  0  0  0  0
   29.5300   27.1100   35.3900 C   0  0  0  0  0  0  0  0  0  0  0  0
   30.8300   27.5700   35.6500 C   0  0  0  0  0  0  0  0  0  0  0  0
   31.8500   27.5400   34.6900 C   0  0  0  0  0  0  0  0  0  0  0  0
   31.5100   27.1200   33.4000 C   0  0  0  0  0  0  0  0  0  0  0  0
   30.2200   26.6300   33.1100 C   0  0  0  0  0  0  0  0  0  0  0  0
   29.2400   26.6600   34.1000 C   0  0  0  0  0  0  0  0  0  0  0  0
   27.9300   26.2600   33.8100 C   0  0  0  0  0  0  0  0  0  0  0  0
   27.5200   25.7100   32.6100 N   0  0  0  0  0  0  0  0  0  0  0  0
   23.3314   26.4028   35.1540 C   0  0  0  0  0  0  0  0  0  0  0  0
   22.3986   26.6136   36.1193 N   0  0  0  0  0  0  0  0  0  0  0  0
   21.1127   26.9121   35.8031 C   0  0  0  0  0  0  0  0  0  0  0  0
   20.7268   27.0256   34.4626 C   0  0  0  0  0  0  0  0  0  0  0  0
   19.2831   27.2826   34.0986 C   0  0  0  0  0  0  0  0  0  0  0  0
   18.5425   25.9734   33.7711 C   0  0  0  0  0  0  0  0  0  0  0  0
   19.4776   24.9172   33.3134 N   0  0  0  0  0  0  0  0  0  0  0  0
   18.9494   23.5853   33.6537 C   0  0  0  0  0  0  0  0  0  0  0  0
   19.7558   24.9823   31.8630 C   0  0  0  0  0  0  0  0  0  0  0  0
   20.4252   26.2563   31.3930 C   0  0  0  0  0  0  0  0  0  0  0  0
   21.3949   26.9431   32.0324 C   0  0  0  0  0  0  0  0  0  0  0  0
   22.0876   28.0588   31.3014 C   0  0  0  0  0  0  0  0  0  0  0  0
   21.6989   26.7789   33.4712 C   0  0  0  0  0  0  0  0  0  0  0  0
   22.9762   26.5018   33.8443 N   0  0  0  0  0  0  0  0  0  0  0  0
  1  2  1  0
  2  3  2  0
  2  4  1  0
  4  5  2  0
  5  6  1  0
  6  7  2  0
  7  8  1  0
  8  9  2  0
  9 10  1  0
 10 11  2  0
 11 12  1  0
 12 13  2  0
 13 14  1  0
  1 15  1  0
 15 16  2  0
 16 17  1  0
 17 18  2  0
 18 19  1  0
 19 20  1  0
 20 21  1  0
 21 22  1  0
 21 23  1  0
 23 24  1  0
 24 25  2  0
 25 26  1  0
 25 27  1  0
 27 28  2  0
 13  4  1  0
 28 15  1  0
 12  7  1  0
 27 18  1  0
M  END
>  <AAScore>  (1) 
734.1635080710527

>  <RootName>  (1) 
./4ZLY/04_DeltaGEst/trajectory_02/rank_00/lead_0184

$$$$
