confid_13
     RDKit          3D

 29 32  0  0  0  0  0  0  0  0999 V2000
   25.3300   26.2600   34.7600 N   0  0  0  0  0  0  0  0  0  0  0  0
   26.1200   25.9200   33.6900 C   0  0  0  0  0  0  0  0  0  0  0  0
   25.6300   25.1100   32.9400 O   0  0  0  0  0  0  0  0  0  0  0  0
   27.5200   26.3800   33.4600 C   0  0  0  0  0  0  0  0  0  0  0  0
   28.1600   26.6300   34.6100 N   0  0  0  0  0  0  0  0  0  0  0  0
   29.4800   26.8500   34.5700 N   0  0  0  0  0  0  0  0  0  0  0  0
   30.1900   26.7800   33.4400 C   0  0  0  0  0  0  0  0  0  0  0  0
   31.5600   27.0500   33.5000 C   0  0  0  0  0  0  0  0  0  0  0  0
   32.2700   27.2400   32.3100 C   0  0  0  0  0  0  0  0  0  0  0  0
   31.6100   27.2500   31.0800 C   0  0  0  0  0  0  0  0  0  0  0  0
   30.2700   26.8700   31.0600 C   0  0  0  0  0  0  0  0  0  0  0  0
   29.5100   26.6900   32.2300 C   0  0  0  0  0  0  0  0  0  0  0  0
   28.1400   26.4100   32.2000 C   0  0  0  0  0  0  0  0  0  0  0  0
   27.4300   26.1300   31.0500 N   0  0  0  0  0  0  0  0  0  0  0  0
   26.8598   27.3375   30.4019 C   0  0  0  0  0  0  0  0  0  0  0  0
   26.2678   27.1608   29.0005 C   0  0  0  0  0  0  0  0  0  0  0  0
   27.0569   26.2232   28.2070 N   0  0  0  0  0  0  0  0  0  0  0  0
   28.3192   26.5792   27.5843 C   0  0  0  0  0  0  0  0  0  0  0  0
   29.0768   25.5975   26.9175 C   0  0  0  0  0  0  0  0  0  0  0  0
   30.3127   25.9263   26.3593 C   0  0  0  0  0  0  0  0  0  0  0  0
   30.7897   27.1931   26.4549 N   0  0  0  0  0  0  0  0  0  0  0  0
   30.0864   28.1763   27.0762 C   0  0  0  0  0  0  0  0  0  0  0  0
   28.8403   27.8885   27.6489 C   0  0  0  0  0  0  0  0  0  0  0  0
   30.6686   29.5496   27.1852 C   0  0  0  0  0  0  0  0  0  0  0  0
   26.6032   24.8932   28.1313 N   0  0  0  0  0  0  0  0  0  0  0  0
   26.6483   24.2125   29.4492 C   0  0  0  0  0  0  0  0  0  0  0  0
   25.2545   24.1625   30.1185 C   0  0  0  0  0  0  0  0  0  0  0  0
   27.0605   22.7564   29.1512 C   0  0  0  0  0  0  0  0  0  0  0  0
   27.7272   24.8164   30.4121 C   0  0  0  0  0  0  0  0  0  0  0  0
  1  2  1  0
  2  3  2  0
  2  4  1  0
  4  5  2  0
  5  6  1  0
  6  7  2  0
  7  8  1  0
  8  9  2  0
  9 10  1  0
 10 11  2  0
 11 12  1  0
 12 13  2  0
 13 14  1  0
 14 15  1  0
 15 16  1  0
 16 17  1  0
 17 18  1  0
 18 19  2  0
 19 20  1  0
 20 21  2  0
 21 22  1  0
 22 23  2  0
 22 24  1  0
 17 25  1  0
 25 26  1  0
 26 27  1  0
 26 28  1  0
 26 29  1  0
 13  4  1  0
 29 14  1  0
 12  7  1  0
 23 18  1  0
M  END
>  <AAScore>  (1) 
29.12768974737583

>  <RootName>  (1) 
./4ZLY/04_DeltaGEst/trajectory_03/rank_01/lead_0176

$$$$
