confid_15
     RDKit          3D

 29 33  0  0  0  0  0  0  0  0999 V2000
   25.3300   26.2600   34.7600 N   0  0  0  0  0  0  0  0  0  0  0  0
   26.1200   25.9200   33.6900 C   0  0  0  0  0  0  0  0  0  0  0  0
   25.6300   25.1100   32.9400 O   0  0  0  0  0  0  0  0  0  0  0  0
   27.5200   26.3800   33.4600 C   0  0  0  0  0  0  0  0  0  0  0  0
   28.1600   26.6300   34.6100 N   0  0  0  0  0  0  0  0  0  0  0  0
   29.4800   26.8500   34.5700 N   0  0  0  0  0  0  0  0  0  0  0  0
   30.1900   26.7800   33.4400 C   0  0  0  0  0  0  0  0  0  0  0  0
   31.5600   27.0500   33.5000 C   0  0  0  0  0  0  0  0  0  0  0  0
   32.2700   27.2400   32.3100 C   0  0  0  0  0  0  0  0  0  0  0  0
   31.6100   27.2500   31.0800 C   0  0  0  0  0  0  0  0  0  0  0  0
   30.2700   26.8700   31.0600 C   0  0  0  0  0  0  0  0  0  0  0  0
   29.5100   26.6900   32.2300 C   0  0  0  0  0  0  0  0  0  0  0  0
   28.1400   26.4100   32.2000 C   0  0  0  0  0  0  0  0  0  0  0  0
   27.4300   26.1300   31.0500 N   0  0  0  0  0  0  0  0  0  0  0  0
   26.5798   27.1062   30.3928 C   0  0  0  0  0  0  0  0  0  0  0  0
   26.2208   26.4444   29.0609 C   0  0  0  0  0  0  0  0  0  0  0  0
   26.5165   24.9443   29.2015 C   0  0  0  0  0  0  0  0  0  0  0  0
   27.5295   24.8615   30.3397 C   0  0  0  0  0  0  0  0  0  0  0  0
   24.9014   26.8173   28.4518 C   0  0  0  0  0  0  0  0  0  0  0  0
   25.4614   27.4698   27.2510 N   0  0  0  0  0  0  0  0  0  0  0  0
   26.7738   27.1081   27.8275 C   0  0  0  0  0  0  0  0  0  0  0  0
   24.9376   28.2489   26.1721 C   0  0  0  0  0  0  0  0  0  0  0  0
   23.7034   28.5019   26.1461 O   0  0  0  0  0  0  0  0  0  0  0  0
   25.8160   28.8017   25.1198 C   0  0  0  0  0  0  0  0  0  0  0  0
   26.9171   28.0734   24.6369 C   0  0  0  0  0  0  0  0  0  0  0  0
   27.7367   28.6101   23.6389 C   0  0  0  0  0  0  0  0  0  0  0  0
   27.4606   29.8723   23.1083 C   0  0  0  0  0  0  0  0  0  0  0  0
   26.3586   30.5968   23.5685 C   0  0  0  0  0  0  0  0  0  0  0  0
   25.5356   30.0633   24.5652 C   0  0  0  0  0  0  0  0  0  0  0  0
  1  2  1  0
  2  3  2  0
  2  4  1  0
  4  5  2  0
  5  6  1  0
  6  7  2  0
  7  8  1  0
  8  9  2  0
  9 10  1  0
 10 11  2  0
 11 12  1  0
 12 13  2  0
 13 14  1  0
 14 15  1  0
 15 16  1  0
 16 17  1  0
 17 18  1  0
 16 19  1  0
 19 20  1  0
 20 21  1  0
 20 22  1  0
 22 23  2  0
 22 24  1  0
 24 25  2  0
 25 26  1  0
 26 27  2  0
 27 28  1  0
 28 29  2  0
 13  4  1  0
 18 14  1  0
 29 24  1  0
 12  7  1  0
 21 16  1  0
M  END
>  <AAScore>  (1) 
378.34242108469857

>  <RootName>  (1) 
./4ZLY/04_DeltaGEst/trajectory_03/rank_01/lead_0277

$$$$
