confid_4
     RDKit          3D

 27 30  0  0  0  0  0  0  0  0999 V2000
   24.2000   26.2400   35.6900 N   0  0  0  0  0  0  0  0  0  0  0  0
   24.8500   26.2800   34.4800 C   0  0  0  0  0  0  0  0  0  0  0  0
   24.3100   25.7400   33.5400 O   0  0  0  0  0  0  0  0  0  0  0  0
   26.1800   26.9700   34.4700 C   0  0  0  0  0  0  0  0  0  0  0  0
   26.6500   27.6000   35.5500 N   0  0  0  0  0  0  0  0  0  0  0  0
   27.7900   28.2700   35.6200 N   0  0  0  0  0  0  0  0  0  0  0  0
   28.5400   28.3000   34.5100 C   0  0  0  0  0  0  0  0  0  0  0  0
   29.7700   28.9400   34.5600 C   0  0  0  0  0  0  0  0  0  0  0  0
   30.7000   28.8900   33.5000 C   0  0  0  0  0  0  0  0  0  0  0  0
   30.3700   28.1400   32.3700 C   0  0  0  0  0  0  0  0  0  0  0  0
   29.1200   27.5200   32.2800 C   0  0  0  0  0  0  0  0  0  0  0  0
   28.2100   27.6100   33.3300 C   0  0  0  0  0  0  0  0  0  0  0  0
   26.9700   26.9700   33.3100 C   0  0  0  0  0  0  0  0  0  0  0  0
   26.5300   26.2400   32.2200 N   0  0  0  0  0  0  0  0  0  0  0  0
   30.1402   29.6606   35.7481 N   0  0  0  0  0  0  0  0  0  0  0  0
   30.6075   28.9251   36.9231 C   0  0  0  0  0  0  0  0  0  0  0  0
   29.9869   29.5325   38.1769 C   0  0  0  0  0  0  0  0  0  0  0  0
   30.1495   31.0267   38.2057 C   0  0  0  0  0  0  0  0  0  0  0  0
   30.0657   31.6667   39.4037 N   0  0  0  0  0  0  0  0  0  0  0  0
   30.1453   33.0178   39.5081 C   0  0  0  0  0  0  0  0  0  0  0  0
   30.3070   33.7984   38.3656 C   0  0  0  0  0  0  0  0  0  0  0  0
   30.3871   33.1810   37.1122 C   0  0  0  0  0  0  0  0  0  0  0  0
   30.2959   31.7778   37.0166 C   0  0  0  0  0  0  0  0  0  0  0  0
   30.3954   31.1019   35.6649 C   0  0  0  0  0  0  0  0  0  0  0  0
   30.5629   33.9842   35.9360 N   0  0  0  0  0  0  0  0  0  0  0  0
   31.9206   34.2803   35.4842 C   0  0  0  0  0  0  0  0  0  0  0  0
   29.4721   34.8568   35.5073 C   0  0  0  0  0  0  0  0  0  0  0  0
  1  2  1  0
  2  3  2  0
  2  4  1  0
  4  5  2  0
  5  6  1  0
  6  7  2  0
  7  8  1  0
  8  9  2  0
  9 10  1  0
 10 11  2  0
 11 12  1  0
 12 13  2  0
 13 14  1  0
  8 15  1  0
 15 16  1  0
 16 17  1  0
 17 18  1  0
 18 19  2  0
 19 20  1  0
 20 21  2  0
 21 22  1  0
 22 23  2  0
 23 24  1  0
 22 25  1  0
 25 26  1  0
 25 27  1  0
 13  4  1  0
 24 15  1  0
 12  7  1  0
 23 18  1  0
M  END
>  <AAScore>  (1) 
-6.630370081864483

>  <RootName>  (1) 
./4ZLY/04_DeltaGEst/trajectory_04/rank_01/lead_0160

$$$$
