confid_9
     RDKit          3D

 30 33  0  0  0  0  0  0  0  0999 V2000
   25.3300   26.2600   34.7600 N   0  0  0  0  0  0  0  0  0  0  0  0
   26.1200   25.9200   33.6900 C   0  0  0  0  0  0  0  0  0  0  0  0
   25.6300   25.1100   32.9400 O   0  0  0  0  0  0  0  0  0  0  0  0
   27.5200   26.3800   33.4600 C   0  0  0  0  0  0  0  0  0  0  0  0
   28.1600   26.6300   34.6100 N   0  0  0  0  0  0  0  0  0  0  0  0
   29.4800   26.8500   34.5700 N   0  0  0  0  0  0  0  0  0  0  0  0
   30.1900   26.7800   33.4400 C   0  0  0  0  0  0  0  0  0  0  0  0
   31.5600   27.0500   33.5000 C   0  0  0  0  0  0  0  0  0  0  0  0
   32.2700   27.2400   32.3100 C   0  0  0  0  0  0  0  0  0  0  0  0
   31.6100   27.2500   31.0800 C   0  0  0  0  0  0  0  0  0  0  0  0
   30.2700   26.8700   31.0600 C   0  0  0  0  0  0  0  0  0  0  0  0
   29.5100   26.6900   32.2300 C   0  0  0  0  0  0  0  0  0  0  0  0
   28.1400   26.4100   32.2000 C   0  0  0  0  0  0  0  0  0  0  0  0
   27.4300   26.1300   31.0500 N   0  0  0  0  0  0  0  0  0  0  0  0
   27.5987   24.8228   30.3969 C   0  0  0  0  0  0  0  0  0  0  0  0
   26.7729   24.7377   29.1116 C   0  0  0  0  0  0  0  0  0  0  0  0
   26.9336   25.9773   28.3365 N   0  0  0  0  0  0  0  0  0  0  0  0
   27.2366   25.9442   26.9282 C   0  0  0  0  0  0  0  0  0  0  0  0
   26.8473   26.8845   26.1840 O   0  0  0  0  0  0  0  0  0  0  0  0
   28.0765   24.8710   26.3537 C   0  0  0  0  0  0  0  0  0  0  0  0
   27.6517   24.0760   25.2582 C   0  0  0  0  0  0  0  0  0  0  0  0
   26.2707   24.2051   24.6532 C   0  0  0  0  0  0  0  0  0  0  0  0
   25.2332   23.4808   25.5063 C   0  0  0  0  0  0  0  0  0  0  0  0
   28.5014   23.0607   24.7813 C   0  0  0  0  0  0  0  0  0  0  0  0
   29.7574   22.8459   25.3620 C   0  0  0  0  0  0  0  0  0  0  0  0
   30.5993   21.8448   24.8827 O   0  0  0  0  0  0  0  0  0  0  0  0
   30.1704   23.6360   26.4349 C   0  0  0  0  0  0  0  0  0  0  0  0
   29.3357   24.6376   26.9307 C   0  0  0  0  0  0  0  0  0  0  0  0
   26.7322   27.2792   28.9916 C   0  0  0  0  0  0  0  0  0  0  0  0
   26.5034   27.1277   30.5005 C   0  0  0  0  0  0  0  0  0  0  0  0
  1  2  1  0
  2  3  2  0
  2  4  1  0
  4  5  2  0
  5  6  1  0
  6  7  2  0
  7  8  1  0
  8  9  2  0
  9 10  1  0
 10 11  2  0
 11 12  1  0
 12 13  2  0
 13 14  1  0
 14 15  1  0
 15 16  1  0
 16 17  1  0
 17 18  1  0
 18 19  2  0
 18 20  1  0
 20 21  2  0
 21 22  1  0
 22 23  1  0
 21 24  1  0
 24 25  2  0
 25 26  1  0
 25 27  1  0
 27 28  2  0
 17 29  1  0
 29 30  1  0
 13  4  1  0
 30 14  1  0
 12  7  1  0
 28 20  1  0
M  END
>  <AAScore>  (1) 
-0.6878634819610093

>  <RootName>  (1) 
./4ZLY/04_DeltaGEst/trajectory_03/rank_01/lead_0101

$$$$
