confid_14
     RDKit          3D

 32 36  0  0  0  0  0  0  0  0999 V2000
   24.5500   26.3900   36.2500 N   0  0  0  0  0  0  0  0  0  0  0  0
   25.6000   26.1300   35.4000 C   0  0  0  0  0  0  0  0  0  0  0  0
   25.4300   25.4300   34.4200 O   0  0  0  0  0  0  0  0  0  0  0  0
   26.9800   26.6300   35.7100 C   0  0  0  0  0  0  0  0  0  0  0  0
   27.3200   26.8200   36.9800 N   0  0  0  0  0  0  0  0  0  0  0  0
   28.4700   27.4000   37.3100 N   0  0  0  0  0  0  0  0  0  0  0  0
   29.4000   27.6300   36.3700 C   0  0  0  0  0  0  0  0  0  0  0  0
   30.6600   28.0500   36.8000 C   0  0  0  0  0  0  0  0  0  0  0  0
   31.5700   28.3600   35.7800 C   0  0  0  0  0  0  0  0  0  0  0  0
   31.3700   28.1000   34.4300 C   0  0  0  0  0  0  0  0  0  0  0  0
   30.1200   27.5900   34.0500 C   0  0  0  0  0  0  0  0  0  0  0  0
   29.1500   27.3400   35.0300 C   0  0  0  0  0  0  0  0  0  0  0  0
   27.8800   26.8900   34.6600 C   0  0  0  0  0  0  0  0  0  0  0  0
   27.4800   26.6100   33.3700 N   0  0  0  0  0  0  0  0  0  0  0  0
   23.1703   26.0051   36.0791 C   0  0  0  0  0  0  0  0  0  0  0  0
   22.2523   26.5096   36.8390 N   0  0  0  0  0  0  0  0  0  0  0  0
   21.0108   25.9311   36.4718 C   0  0  0  0  0  0  0  0  0  0  0  0
   21.1701   25.0530   35.4942 C   0  0  0  0  0  0  0  0  0  0  0  0
   20.2707   25.0029   34.3098 C   0  0  0  0  0  0  0  0  0  0  0  0
   21.2583   25.1437   33.2066 C   0  0  0  0  0  0  0  0  0  0  0  0
   20.9322   25.2128   32.0325 O   0  0  0  0  0  0  0  0  0  0  0  0
   22.6859   25.2068   33.6575 C   0  0  0  0  0  0  0  0  0  0  0  0
   22.6237   24.9173   35.1745 C   0  0  1  0  0  0  0  0  0  0  0  0
   23.1827   23.5241   35.5900 C   0  0  0  0  0  0  0  0  0  0  0  0
   22.4017   22.3066   35.0470 C   0  0  0  0  0  0  0  0  0  0  0  0
   21.4081   21.7882   36.0539 C   0  0  0  0  0  0  0  0  0  0  0  0
   20.1917   22.0918   35.9271 O   0  0  0  0  0  0  0  0  0  0  0  0
   21.8247   20.9905   37.1768 N   0  0  0  0  0  0  0  0  0  0  0  0
   20.9355   20.6588   38.2758 C   0  0  0  0  0  0  0  0  0  0  0  0
   21.8077   19.9677   39.3147 C   0  0  0  0  0  0  0  0  0  0  0  0
   23.0768   19.5448   38.5799 C   0  0  0  0  0  0  0  0  0  0  0  0
   23.1534   20.4236   37.3382 C   0  0  0  0  0  0  0  0  0  0  0  0
  1  2  1  0
  2  3  2  0
  2  4  1  0
  4  5  2  0
  5  6  1  0
  6  7  2  0
  7  8  1  0
  8  9  2  0
  9 10  1  0
 10 11  2  0
 11 12  1  0
 12 13  2  0
 13 14  1  0
  1 15  1  0
 15 16  2  0
 16 17  1  0
 17 18  2  0
 18 19  1  0
 19 20  1  0
 20 21  2  0
 20 22  1  0
 22 23  1  0
 23 24  1  6
 24 25  1  0
 25 26  1  0
 26 27  2  0
 26 28  1  0
 28 29  1  0
 29 30  1  0
 30 31  1  0
 31 32  1  0
 13  4  1  0
 23 15  1  0
 32 28  1  0
 12  7  1  0
 23 18  1  0
M  END
>  <AAScore>  (1) 
3514.855165310291

>  <RootName>  (1) 
./4ZLY/04_DeltaGEst/trajectory_01/rank_00/lead_0003

$$$$
