confid_2
     RDKit          3D

 29 32  0  0  0  0  0  0  0  0999 V2000
   24.6900   26.1200   35.5300 N   0  0  0  0  0  0  0  0  0  0  0  0
   25.6600   25.6700   34.6600 C   0  0  0  0  0  0  0  0  0  0  0  0
   25.2400   25.0100   33.7200 O   0  0  0  0  0  0  0  0  0  0  0  0
   27.0300   26.2200   34.8800 C   0  0  0  0  0  0  0  0  0  0  0  0
   27.3500   26.7300   36.0700 N   0  0  0  0  0  0  0  0  0  0  0  0
   28.5700   27.1800   36.3300 N   0  0  0  0  0  0  0  0  0  0  0  0
   29.5300   27.1100   35.3900 C   0  0  0  0  0  0  0  0  0  0  0  0
   30.8300   27.5700   35.6500 C   0  0  0  0  0  0  0  0  0  0  0  0
   31.8500   27.5400   34.6900 C   0  0  0  0  0  0  0  0  0  0  0  0
   31.5100   27.1200   33.4000 C   0  0  0  0  0  0  0  0  0  0  0  0
   30.2200   26.6300   33.1100 C   0  0  0  0  0  0  0  0  0  0  0  0
   29.2400   26.6600   34.1000 C   0  0  0  0  0  0  0  0  0  0  0  0
   27.9300   26.2600   33.8100 C   0  0  0  0  0  0  0  0  0  0  0  0
   27.5200   25.7100   32.6100 N   0  0  0  0  0  0  0  0  0  0  0  0
   31.1760   28.0947   36.9932 C   0  0  0  0  0  0  0  0  0  0  0  0
   30.4506   29.1966   37.5274 C   0  0  0  0  0  0  0  0  0  0  0  0
   30.8426   29.6227   38.7789 C   0  0  0  0  0  0  0  0  0  0  0  0
   30.6145   30.6062   39.8744 C   0  0  0  0  0  0  0  0  0  0  0  0
   31.6880   29.9769   40.6451 C   0  0  1  0  0  0  0  0  0  0  0  0
   32.8843   30.9187   40.9010 C   0  0  0  0  0  0  0  0  0  0  0  0
   31.1527   29.3594   41.8085 O   0  0  0  0  0  0  0  0  0  0  0  0
   32.1153   28.5912   42.5063 C   0  0  0  0  0  0  0  0  0  0  0  0
   31.4002   27.5364   43.3516 C   0  0  0  0  0  0  0  0  0  0  0  0
   30.5147   26.6986   42.5124 N   0  0  0  0  0  0  0  0  0  0  0  0
   29.4335   26.1239   43.3288 C   0  0  0  0  0  0  0  0  0  0  0  0
   31.2694   25.6110   41.8652 C   0  0  0  0  0  0  0  0  0  0  0  0
   31.8998   29.0207   39.5066 C   0  0  0  0  0  0  0  0  0  0  0  0
   32.6365   27.9627   39.0124 C   0  0  0  0  0  0  0  0  0  0  0  0
   32.2573   27.4990   37.7296 C   0  0  0  0  0  0  0  0  0  0  0  0
  1  2  1  0
  2  3  2  0
  2  4  1  0
  4  5  2  0
  5  6  1  0
  6  7  2  0
  7  8  1  0
  8  9  2  0
  9 10  1  0
 10 11  2  0
 11 12  1  0
 12 13  2  0
 13 14  1  0
  8 15  1  0
 15 16  2  0
 16 17  1  0
 17 18  1  0
 18 19  1  0
 19 20  1  1
 19 21  1  0
 21 22  1  0
 22 23  1  0
 23 24  1  0
 24 25  1  0
 24 26  1  0
 19 27  1  0
 27 28  1  0
 28 29  2  0
 13  4  1  0
 29 15  1  0
 12  7  1  0
 27 17  2  0
M  END
>  <AAScore>  (1) 
760.316298432641

>  <RootName>  (1) 
./4ZLY/04_DeltaGEst/trajectory_02/rank_01/lead_0079

$$$$
