confid_17
     RDKit          3D

 28 32  0  0  0  0  0  0  0  0999 V2000
   24.4800   26.1000   36.1300 N   0  0  0  0  0  0  0  0  0  0  0  0
   25.2500   26.2500   34.9900 C   0  0  0  0  0  0  0  0  0  0  0  0
   24.7400   25.7600   33.9900 O   0  0  0  0  0  0  0  0  0  0  0  0
   26.5900   26.8900   34.9600 C   0  0  0  0  0  0  0  0  0  0  0  0
   27.0600   27.2400   36.1600 N   0  0  0  0  0  0  0  0  0  0  0  0
   28.3000   27.7100   36.2400 N   0  0  0  0  0  0  0  0  0  0  0  0
   29.0500   27.9600   35.1500 C   0  0  0  0  0  0  0  0  0  0  0  0
   30.3400   28.4900   35.2600 C   0  0  0  0  0  0  0  0  0  0  0  0
   31.1100   28.8200   34.1400 C   0  0  0  0  0  0  0  0  0  0  0  0
   30.5200   28.6700   32.8800 C   0  0  0  0  0  0  0  0  0  0  0  0
   29.2900   28.0200   32.7700 C   0  0  0  0  0  0  0  0  0  0  0  0
   28.5200   27.7100   33.8900 C   0  0  0  0  0  0  0  0  0  0  0  0
   27.2700   27.0800   33.7600 C   0  0  0  0  0  0  0  0  0  0  0  0
   26.7500   26.8800   32.4900 N   0  0  0  0  0  0  0  0  0  0  0  0
   23.0881   25.7393   36.1625 C   0  0  0  0  0  0  0  0  0  0  0  0
   22.3091   25.6016   35.0649 N   0  0  0  0  0  0  0  0  0  0  0  0
   21.1171   25.2925   35.6112 C   0  0  0  0  0  0  0  0  0  0  0  0
   19.8863   25.0009   34.8073 C   0  0  0  0  0  0  0  0  0  0  0  0
   19.4514   23.5866   34.9280 N   0  0  0  0  0  0  0  0  0  0  0  0
   19.4371   23.0585   36.3209 C   0  0  0  0  0  0  0  0  0  0  0  0
   18.9664   24.0867   37.3682 C   0  0  0  0  0  0  0  0  0  0  0  0
   20.1053   24.9740   37.9186 C   0  0  0  0  0  0  0  0  0  0  0  0
   21.1816   25.2362   36.9562 N   0  0  0  0  0  0  0  0  0  0  0  0
   22.4178   25.5328   37.3131 N   0  0  0  0  0  0  0  0  0  0  0  0
   20.2440   22.7125   34.0324 C   0  0  0  0  0  0  0  0  0  0  0  0
   19.5840   21.3302   33.8829 C   0  0  0  0  0  0  0  0  0  0  0  0
   18.3917   21.2799   32.9406 C   0  0  0  0  0  0  0  0  0  0  0  0
   19.7223   20.6760   32.5166 C   0  0  0  0  0  0  0  0  0  0  0  0
  1  2  1  0
  2  3  2  0
  2  4  1  0
  4  5  2  0
  5  6  1  0
  6  7  2  0
  7  8  1  0
  8  9  2  0
  9 10  1  0
 10 11  2  0
 11 12  1  0
 12 13  2  0
 13 14  1  0
  1 15  1  0
 15 16  1  0
 16 17  2  0
 17 18  1  0
 18 19  1  0
 19 20  1  0
 20 21  1  0
 21 22  1  0
 22 23  1  0
 23 24  1  0
 19 25  1  0
 25 26  1  0
 26 27  1  0
 27 28  1  0
 13  4  1  0
 24 15  2  0
 28 26  1  0
 12  7  1  0
 23 17  1  0
M  END
>  <AAScore>  (1) 
1196.520640329691

>  <RootName>  (1) 
./4ZLY/04_DeltaGEst/trajectory_00/rank_01/lead_0342

$$$$
