confid_2
     RDKit          3D

 27 30  0  0  0  0  0  0  0  0999 V2000
   24.5500   26.3900   36.2500 N   0  0  0  0  0  0  0  0  0  0  0  0
   25.6000   26.1300   35.4000 C   0  0  0  0  0  0  0  0  0  0  0  0
   25.4300   25.4300   34.4200 O   0  0  0  0  0  0  0  0  0  0  0  0
   26.9800   26.6300   35.7100 C   0  0  0  0  0  0  0  0  0  0  0  0
   27.3200   26.8200   36.9800 N   0  0  0  0  0  0  0  0  0  0  0  0
   28.4700   27.4000   37.3100 N   0  0  0  0  0  0  0  0  0  0  0  0
   29.4000   27.6300   36.3700 C   0  0  0  0  0  0  0  0  0  0  0  0
   30.6600   28.0500   36.8000 C   0  0  0  0  0  0  0  0  0  0  0  0
   31.5700   28.3600   35.7800 C   0  0  0  0  0  0  0  0  0  0  0  0
   31.3700   28.1000   34.4300 C   0  0  0  0  0  0  0  0  0  0  0  0
   30.1200   27.5900   34.0500 C   0  0  0  0  0  0  0  0  0  0  0  0
   29.1500   27.3400   35.0300 C   0  0  0  0  0  0  0  0  0  0  0  0
   27.8800   26.8900   34.6600 C   0  0  0  0  0  0  0  0  0  0  0  0
   27.4800   26.6100   33.3700 N   0  0  0  0  0  0  0  0  0  0  0  0
   23.1728   26.3495   35.8285 C   0  0  0  0  0  0  0  0  0  0  0  0
   22.8706   26.5314   34.5073 N   0  0  0  0  0  0  0  0  0  0  0  0
   21.5980   26.5440   34.0251 C   0  0  0  0  0  0  0  0  0  0  0  0
   21.4312   26.7427   32.6468 O   0  0  0  0  0  0  0  0  0  0  0  0
   20.2939   26.3706   31.8765 C   0  0  0  0  0  0  0  0  0  0  0  0
   20.5425   26.3767   34.9417 C   0  0  0  0  0  0  0  0  0  0  0  0
   19.0735   26.4362   34.7282 C   0  0  0  0  0  0  0  0  0  0  0  0
   18.4642   26.3910   36.0760 N   0  0  0  0  0  0  0  0  0  0  0  0
   17.3683   25.4131   36.1534 C   0  0  0  0  0  0  0  0  0  0  0  0
   19.5458   26.0852   37.0384 C   0  0  0  0  0  0  0  0  0  0  0  0
   20.8100   26.1950   36.2701 C   0  0  0  0  0  0  0  0  0  0  0  0
   22.1269   26.1608   36.7622 C   0  0  0  0  0  0  0  0  0  0  0  0
   22.4081   25.9535   38.2275 C   0  0  0  0  0  0  0  0  0  0  0  0
  1  2  1  0
  2  3  2  0
  2  4  1  0
  4  5  2  0
  5  6  1  0
  6  7  2  0
  7  8  1  0
  8  9  2  0
  9 10  1  0
 10 11  2  0
 11 12  1  0
 12 13  2  0
 13 14  1  0
  1 15  1  0
 15 16  2  0
 16 17  1  0
 17 18  1  0
 18 19  1  0
 17 20  2  0
 20 21  1  0
 21 22  1  0
 22 23  1  0
 22 24  1  0
 24 25  1  0
 25 26  2  0
 26 27  1  0
 13  4  1  0
 26 15  1  0
 12  7  1  0
 25 20  1  0
M  END
>  <AAScore>  (1) 
1171.9055066388516

>  <RootName>  (1) 
./4ZLY/04_DeltaGEst/trajectory_01/rank_00/lead_0417

$$$$
