confid_6
     RDKit          3D

 27 29  0  0  0  0  0  0  0  0999 V2000
   24.5700   26.8800   35.5900 N   0  0  0  0  0  0  0  0  0  0  0  0
   25.5000   26.4000   34.6900 C   0  0  0  0  0  0  0  0  0  0  0  0
   25.1700   25.5200   33.9100 O   0  0  0  0  0  0  0  0  0  0  0  0
   26.8400   27.0200   34.7400 C   0  0  0  0  0  0  0  0  0  0  0  0
   27.3800   27.2800   35.9400 N   0  0  0  0  0  0  0  0  0  0  0  0
   28.6200   27.7400   36.0300 N   0  0  0  0  0  0  0  0  0  0  0  0
   29.3800   28.0000   34.9600 C   0  0  0  0  0  0  0  0  0  0  0  0
   30.6700   28.5000   35.1300 C   0  0  0  0  0  0  0  0  0  0  0  0
   31.5400   28.6100   34.0300 C   0  0  0  0  0  0  0  0  0  0  0  0
   31.0900   28.2200   32.7700 C   0  0  0  0  0  0  0  0  0  0  0  0
   29.8000   27.7000   32.6000 C   0  0  0  0  0  0  0  0  0  0  0  0
   28.9600   27.5500   33.7100 C   0  0  0  0  0  0  0  0  0  0  0  0
   27.6600   27.0300   33.5900 C   0  0  0  0  0  0  0  0  0  0  0  0
   27.1600   26.7400   32.3400 N   0  0  0  0  0  0  0  0  0  0  0  0
   33.1463   29.3141   34.2076 S   0  0  0  0  0  6  0  0  0  0  0  0
   34.1677   28.2884   33.8045 O   0  0  0  0  0  0  0  0  0  0  0  0
   33.3982   29.7094   35.6365 O   0  0  0  0  0  0  0  0  0  0  0  0
   33.2945   30.7489   33.1413 C   0  0  0  0  0  0  0  0  0  0  0  0
   32.8219   32.0786   33.7863 C   0  0  0  0  0  0  0  0  0  0  0  0
   31.3803   32.0449   34.3337 C   0  0  0  0  0  0  0  0  0  0  0  0
   30.3215   31.9042   33.2197 C   0  0  0  0  0  0  0  0  0  0  0  0
   30.8670   32.2129   31.8761 N   0  0  0  0  0  0  0  0  0  0  0  0
   29.7910   32.3224   30.8677 C   0  0  0  0  0  0  0  0  0  0  0  0
   29.2127   30.9398   30.5275 C   0  0  0  0  0  0  0  0  0  0  0  0
   28.2622   31.0128   29.3360 C   0  0  0  0  0  0  0  0  0  0  0  0
   31.6785   33.4463   31.9183 C   0  0  0  0  0  0  0  0  0  0  0  0
   32.9483   33.2460   32.7775 C   0  0  0  0  0  0  0  0  0  0  0  0
  1  2  1  0
  2  3  2  0
  2  4  1  0
  4  5  2  0
  5  6  1  0
  6  7  2  0
  7  8  1  0
  8  9  2  0
  9 10  1  0
 10 11  2  0
 11 12  1  0
 12 13  2  0
 13 14  1  0
  9 15  1  0
 15 16  2  0
 15 17  2  0
 15 18  1  0
 18 19  1  0
 19 20  1  0
 20 21  1  0
 21 22  1  0
 22 23  1  0
 23 24  1  0
 24 25  1  0
 22 26  1  0
 26 27  1  0
 13  4  1  0
 27 19  1  0
 12  7  1  0
M  END
>  <AAScore>  (1) 
15.06843984993529

>  <RootName>  (1) 
./4ZLY/04_DeltaGEst/trajectory_05/rank_01/lead_0400

$$$$
