confid_14
     RDKit          3D

 27 30  0  0  0  0  0  0  0  0999 V2000
   24.5700   26.8800   35.5900 N   0  0  0  0  0  0  0  0  0  0  0  0
   25.5000   26.4000   34.6900 C   0  0  0  0  0  0  0  0  0  0  0  0
   25.1700   25.5200   33.9100 O   0  0  0  0  0  0  0  0  0  0  0  0
   26.8400   27.0200   34.7400 C   0  0  0  0  0  0  0  0  0  0  0  0
   27.3800   27.2800   35.9400 N   0  0  0  0  0  0  0  0  0  0  0  0
   28.6200   27.7400   36.0300 N   0  0  0  0  0  0  0  0  0  0  0  0
   29.3800   28.0000   34.9600 C   0  0  0  0  0  0  0  0  0  0  0  0
   30.6700   28.5000   35.1300 C   0  0  0  0  0  0  0  0  0  0  0  0
   31.5400   28.6100   34.0300 C   0  0  0  0  0  0  0  0  0  0  0  0
   31.0900   28.2200   32.7700 C   0  0  0  0  0  0  0  0  0  0  0  0
   29.8000   27.7000   32.6000 C   0  0  0  0  0  0  0  0  0  0  0  0
   28.9600   27.5500   33.7100 C   0  0  0  0  0  0  0  0  0  0  0  0
   27.6600   27.0300   33.5900 C   0  0  0  0  0  0  0  0  0  0  0  0
   27.1600   26.7400   32.3400 N   0  0  0  0  0  0  0  0  0  0  0  0
   33.1591   29.2750   34.2232 S   0  0  0  0  0  6  0  0  0  0  0  0
   34.1290   28.4488   33.4255 O   0  0  0  0  0  0  0  0  0  0  0  0
   33.5644   29.2288   35.6706 O   0  0  0  0  0  0  0  0  0  0  0  0
   33.1794   30.9710   33.6408 C   0  0  2  0  0  0  0  0  0  0  0  0
   34.5822   31.5775   33.7908 C   0  0  0  0  0  0  0  0  0  0  0  0
   34.6392   32.9276   33.1895 N   0  0  0  0  0  0  0  0  0  0  0  0
   33.4939   33.8158   33.5296 C   0  0  0  0  0  0  0  0  0  0  0  0
   32.5879   33.2622   34.6570 C   0  0  0  0  0  0  0  0  0  0  0  0
   31.4371   34.2084   35.0291 C   0  0  0  0  0  0  0  0  0  0  0  0
   32.0278   34.3870   36.4213 C   0  0  0  0  0  0  0  0  0  0  0  0
   33.1781   33.4558   36.0646 C   0  0  0  0  0  0  0  0  0  0  0  0
   32.1080   31.8191   34.3650 C   0  0  0  0  0  0  0  0  0  0  0  0
   35.9319   33.5651   33.4828 C   0  0  0  0  0  0  0  0  0  0  0  0
  1  2  1  0
  2  3  2  0
  2  4  1  0
  4  5  2  0
  5  6  1  0
  6  7  2  0
  7  8  1  0
  8  9  2  0
  9 10  1  0
 10 11  2  0
 11 12  1  0
 12 13  2  0
 13 14  1  0
  9 15  1  0
 15 16  2  0
 15 17  2  0
 18 15  1  1
 18 19  1  0
 19 20  1  0
 20 21  1  0
 21 22  1  0
 22 23  1  0
 23 24  1  0
 24 25  1  0
 22 26  1  0
 20 27  1  0
 13  4  1  0
 26 18  1  0
 12  7  1  0
 25 22  1  0
M  END
>  <AAScore>  (1) 
-6.993711105783697

>  <RootName>  (1) 
./4ZLY/04_DeltaGEst/trajectory_05/rank_01/lead_0304

$$$$
