confid_7
     RDKit          3D

 29 33  0  0  0  0  0  0  0  0999 V2000
   24.5700   26.8800   35.5900 N   0  0  0  0  0  0  0  0  0  0  0  0
   25.5000   26.4000   34.6900 C   0  0  0  0  0  0  0  0  0  0  0  0
   25.1700   25.5200   33.9100 O   0  0  0  0  0  0  0  0  0  0  0  0
   26.8400   27.0200   34.7400 C   0  0  0  0  0  0  0  0  0  0  0  0
   27.3800   27.2800   35.9400 N   0  0  0  0  0  0  0  0  0  0  0  0
   28.6200   27.7400   36.0300 N   0  0  0  0  0  0  0  0  0  0  0  0
   29.3800   28.0000   34.9600 C   0  0  0  0  0  0  0  0  0  0  0  0
   30.6700   28.5000   35.1300 C   0  0  0  0  0  0  0  0  0  0  0  0
   31.5400   28.6100   34.0300 C   0  0  0  0  0  0  0  0  0  0  0  0
   31.0900   28.2200   32.7700 C   0  0  0  0  0  0  0  0  0  0  0  0
   29.8000   27.7000   32.6000 C   0  0  0  0  0  0  0  0  0  0  0  0
   28.9600   27.5500   33.7100 C   0  0  0  0  0  0  0  0  0  0  0  0
   27.6600   27.0300   33.5900 C   0  0  0  0  0  0  0  0  0  0  0  0
   27.1600   26.7400   32.3400 N   0  0  0  0  0  0  0  0  0  0  0  0
   23.1680   26.6490   35.4236 C   0  0  0  0  0  0  0  0  0  0  0  0
   22.3572   26.5956   34.4112 N   0  0  0  0  0  0  0  0  0  0  0  0
   21.2270   26.3665   35.2861 C   0  0  0  0  0  0  0  0  0  0  0  0
   21.1475   24.9332   34.9179 N   0  0  0  0  0  0  0  0  0  0  0  0
   19.8852   24.5990   35.5426 C   0  0  2  0  0  0  0  0  0  0  0  0
   19.8394   23.1240   36.0135 C   0  0  0  0  0  0  0  0  0  0  0  0
   20.4855   22.1083   35.0559 C   0  0  0  0  0  0  0  0  0  0  0  0
   21.8801   22.2007   35.1273 O   0  0  0  0  0  0  0  0  0  0  0  0
   20.2564   25.1893   33.7460 C   0  0  0  0  0  0  0  0  0  0  0  0
   20.1691   25.5739   32.4410 O   0  0  0  0  0  0  0  0  0  0  0  0
   18.7610   25.4082   32.1123 C   0  0  0  0  0  0  0  0  0  0  0  0
   18.0132   24.8188   33.3892 C   0  0  0  0  0  0  0  0  0  0  0  0
   19.1388   24.7817   34.3287 C   0  0  0  0  0  0  0  0  0  0  0  0
   22.1011   26.1562   36.2854 C   0  0  0  0  0  0  0  0  0  0  0  0
   22.0447   25.7141   37.7140 C   0  0  0  0  0  0  0  0  0  0  0  0
  1  2  1  0
  2  3  2  0
  2  4  1  0
  4  5  2  0
  5  6  1  0
  6  7  2  0
  7  8  1  0
  8  9  2  0
  9 10  1  0
 10 11  2  0
 11 12  1  0
 12 13  2  0
 13 14  1  0
  1 15  1  0
 15 16  2  0
 16 17  1  0
 17 18  1  0
 18 19  1  0
 19 20  1  6
 20 21  1  0
 21 22  1  0
 18 23  1  0
 23 24  1  0
 24 25  1  0
 25 26  1  0
 26 27  1  0
 17 28  2  0
 28 29  1  0
 13  4  1  0
 28 15  1  0
 12  7  1  0
 27 19  1  0
 27 23  2  0
M  END
>  <AAScore>  (1) 
1718.4258768729078

>  <RootName>  (1) 
./4ZLY/04_DeltaGEst/trajectory_05/rank_00/lead_0205

$$$$
