confid_19
     RDKit          3D

 28 30  0  0  0  0  0  0  0  0999 V2000
   24.5700   26.8800   35.5900 N   0  0  0  0  0  0  0  0  0  0  0  0
   25.5000   26.4000   34.6900 C   0  0  0  0  0  0  0  0  0  0  0  0
   25.1700   25.5200   33.9100 O   0  0  0  0  0  0  0  0  0  0  0  0
   26.8400   27.0200   34.7400 C   0  0  0  0  0  0  0  0  0  0  0  0
   27.3800   27.2800   35.9400 N   0  0  0  0  0  0  0  0  0  0  0  0
   28.6200   27.7400   36.0300 N   0  0  0  0  0  0  0  0  0  0  0  0
   29.3800   28.0000   34.9600 C   0  0  0  0  0  0  0  0  0  0  0  0
   30.6700   28.5000   35.1300 C   0  0  0  0  0  0  0  0  0  0  0  0
   31.5400   28.6100   34.0300 C   0  0  0  0  0  0  0  0  0  0  0  0
   31.0900   28.2200   32.7700 C   0  0  0  0  0  0  0  0  0  0  0  0
   29.8000   27.7000   32.6000 C   0  0  0  0  0  0  0  0  0  0  0  0
   28.9600   27.5500   33.7100 C   0  0  0  0  0  0  0  0  0  0  0  0
   27.6600   27.0300   33.5900 C   0  0  0  0  0  0  0  0  0  0  0  0
   27.1600   26.7400   32.3400 N   0  0  0  0  0  0  0  0  0  0  0  0
   33.1606   29.2733   34.2121 S   0  0  0  0  0  6  0  0  0  0  0  0
   33.4152   29.6417   35.6482 O   0  0  0  0  0  0  0  0  0  0  0  0
   34.1593   28.2304   33.7925 O   0  0  0  0  0  0  0  0  0  0  0  0
   33.3102   30.6863   33.2002 N   0  0  0  0  0  0  0  0  0  0  0  0
   32.4533   31.7655   33.7108 C   0  0  0  0  0  0  0  0  0  0  0  0
   32.3678   32.9295   32.6897 C   0  0  1  0  0  0  0  0  0  0  0  0
   33.6273   33.0046   31.7548 C   0  0  0  0  0  0  0  0  0  0  0  0
   33.4576   32.1411   30.4759 C   0  0  0  0  0  0  0  0  0  0  0  0
   33.8438   34.4672   31.3071 C   0  0  0  0  0  0  0  0  0  0  0  0
   34.8796   32.5336   32.5394 C   0  0  0  0  0  0  0  0  0  0  0  0
   34.7209   31.1147   33.1346 C   0  0  0  0  0  0  0  0  0  0  0  0
   31.1917   32.7913   31.9033 O   0  0  0  0  0  0  0  0  0  0  0  0
   30.1275   33.5482   32.4423 C   0  0  0  0  0  0  0  0  0  0  0  0
   28.8523   33.2276   31.6792 C   0  0  0  0  0  0  0  0  0  0  0  0
  1  2  1  0
  2  3  2  0
  2  4  1  0
  4  5  2  0
  5  6  1  0
  6  7  2  0
  7  8  1  0
  8  9  2  0
  9 10  1  0
 10 11  2  0
 11 12  1  0
 12 13  2  0
 13 14  1  0
  9 15  1  0
 15 16  2  0
 15 17  2  0
 15 18  1  0
 18 19  1  0
 19 20  1  0
 20 21  1  0
 21 22  1  0
 21 23  1  0
 21 24  1  0
 24 25  1  0
 20 26  1  6
 26 27  1  0
 27 28  1  0
 13  4  1  0
 25 18  1  0
 12  7  1  0
M  END
>  <AAScore>  (1) 
54.41381717115341

>  <RootName>  (1) 
./4ZLY/04_DeltaGEst/trajectory_05/rank_01/lead_0414

$$$$
