confid_5
     RDKit          3D

 27 30  0  0  0  0  0  0  0  0999 V2000
   24.4800   26.1000   36.1300 N   0  0  0  0  0  0  0  0  0  0  0  0
   25.2500   26.2500   34.9900 C   0  0  0  0  0  0  0  0  0  0  0  0
   24.7400   25.7600   33.9900 O   0  0  0  0  0  0  0  0  0  0  0  0
   26.5900   26.8900   34.9600 C   0  0  0  0  0  0  0  0  0  0  0  0
   27.0600   27.2400   36.1600 N   0  0  0  0  0  0  0  0  0  0  0  0
   28.3000   27.7100   36.2400 N   0  0  0  0  0  0  0  0  0  0  0  0
   29.0500   27.9600   35.1500 C   0  0  0  0  0  0  0  0  0  0  0  0
   30.3400   28.4900   35.2600 C   0  0  0  0  0  0  0  0  0  0  0  0
   31.1100   28.8200   34.1400 C   0  0  0  0  0  0  0  0  0  0  0  0
   30.5200   28.6700   32.8800 C   0  0  0  0  0  0  0  0  0  0  0  0
   29.2900   28.0200   32.7700 C   0  0  0  0  0  0  0  0  0  0  0  0
   28.5200   27.7100   33.8900 C   0  0  0  0  0  0  0  0  0  0  0  0
   27.2700   27.0800   33.7600 C   0  0  0  0  0  0  0  0  0  0  0  0
   26.7500   26.8800   32.4900 N   0  0  0  0  0  0  0  0  0  0  0  0
   23.5202   25.0446   36.3559 C   0  0  0  0  0  0  0  0  0  0  0  0
   23.4491   23.9846   35.5027 N   0  0  0  0  0  0  0  0  0  0  0  0
   22.5675   22.9672   35.6769 C   0  0  0  0  0  0  0  0  0  0  0  0
   21.6918   22.9761   36.7664 C   0  0  0  0  0  0  0  0  0  0  0  0
   20.6529   21.8918   36.9250 C   0  0  0  0  0  0  0  0  0  0  0  0
   20.1677   21.8108   38.2537 O   0  0  0  0  0  0  0  0  0  0  0  0
   19.6477   23.0640   38.6535 C   0  0  0  0  0  0  0  0  0  0  0  0
   20.7865   24.0714   38.8444 C   0  0  0  0  0  0  0  0  0  0  0  0
   21.7205   24.0593   37.6604 C   0  0  0  0  0  0  0  0  0  0  0  0
   22.6629   25.0874   37.4731 C   0  0  0  0  0  0  0  0  0  0  0  0
   22.7325   26.1508   38.3761 O   0  0  0  0  0  0  0  0  0  0  0  0
   23.5737   26.0969   39.5232 C   0  0  0  0  0  0  0  0  0  0  0  0
   23.4793   27.4088   40.2845 C   0  0  0  0  0  0  0  0  0  0  0  0
  1  2  1  0
  2  3  2  0
  2  4  1  0
  4  5  2  0
  5  6  1  0
  6  7  2  0
  7  8  1  0
  8  9  2  0
  9 10  1  0
 10 11  2  0
 11 12  1  0
 12 13  2  0
 13 14  1  0
  1 15  1  0
 15 16  2  0
 16 17  1  0
 17 18  2  0
 18 19  1  0
 19 20  1  0
 20 21  1  0
 21 22  1  0
 22 23  1  0
 23 24  2  0
 24 25  1  0
 25 26  1  0
 26 27  1  0
 13  4  1  0
 24 15  1  0
 12  7  1  0
 23 18  1  0
M  END
>  <AAScore>  (1) 
682.4981052086407

>  <RootName>  (1) 
./4ZLY/04_DeltaGEst/trajectory_00/rank_00/lead_0208

$$$$
