confid_4
     RDKit          3D

 29 33  0  0  0  0  0  0  0  0999 V2000
   24.5500   26.3900   36.2500 N   0  0  0  0  0  0  0  0  0  0  0  0
   25.6000   26.1300   35.4000 C   0  0  0  0  0  0  0  0  0  0  0  0
   25.4300   25.4300   34.4200 O   0  0  0  0  0  0  0  0  0  0  0  0
   26.9800   26.6300   35.7100 C   0  0  0  0  0  0  0  0  0  0  0  0
   27.3200   26.8200   36.9800 N   0  0  0  0  0  0  0  0  0  0  0  0
   28.4700   27.4000   37.3100 N   0  0  0  0  0  0  0  0  0  0  0  0
   29.4000   27.6300   36.3700 C   0  0  0  0  0  0  0  0  0  0  0  0
   30.6600   28.0500   36.8000 C   0  0  0  0  0  0  0  0  0  0  0  0
   31.5700   28.3600   35.7800 C   0  0  0  0  0  0  0  0  0  0  0  0
   31.3700   28.1000   34.4300 C   0  0  0  0  0  0  0  0  0  0  0  0
   30.1200   27.5900   34.0500 C   0  0  0  0  0  0  0  0  0  0  0  0
   29.1500   27.3400   35.0300 C   0  0  0  0  0  0  0  0  0  0  0  0
   27.8800   26.8900   34.6600 C   0  0  0  0  0  0  0  0  0  0  0  0
   27.4800   26.6100   33.3700 N   0  0  0  0  0  0  0  0  0  0  0  0
   30.9761   28.3161   38.2277 C   0  0  0  0  0  0  0  0  0  0  0  0
   32.1750   27.6251   38.7528 C   0  0  0  0  0  0  0  0  0  0  0  0
   32.2255   26.8831   39.8558 C   0  0  0  0  0  0  0  0  0  0  0  0
   33.3008   26.0817   40.1467 O   0  0  0  0  0  0  0  0  0  0  0  0
   33.0376   25.3211   41.3074 C   0  0  0  0  0  0  0  0  0  0  0  0
   31.6296   25.5557   41.6713 N   0  0  0  0  0  0  0  0  0  0  0  0
   31.1986   26.7379   40.9048 C   0  0  1  0  0  0  0  0  0  0  0  0
   31.2195   27.9660   41.8294 C   0  0  0  0  0  0  0  0  0  0  0  0
   30.1606   29.0004   41.4681 C   0  0  0  0  0  0  0  0  0  0  0  0
   30.4680   29.8351   40.2433 C   0  0  0  0  0  0  0  0  0  0  0  0
   30.1161   31.1275   40.1911 C   0  0  0  0  0  0  0  0  0  0  0  0
   29.7312   31.5375   38.8850 N   0  0  0  0  0  0  0  0  0  0  0  0
   29.8341   30.5077   38.1206 C   0  0  0  0  0  0  0  0  0  0  0  0
   30.3777   29.3589   38.8486 C   0  0  0  0  0  0  0  0  0  0  0  0
   29.8509   32.1774   41.5772 Cl  0  0  0  0  0  0  0  0  0  0  0  0
  1  2  1  0
  2  3  2  0
  2  4  1  0
  4  5  2  0
  5  6  1  0
  6  7  2  0
  7  8  1  0
  8  9  2  0
  9 10  1  0
 10 11  2  0
 11 12  1  0
 12 13  2  0
 13 14  1  0
  8 15  1  0
 15 16  1  0
 16 17  2  0
 17 18  1  0
 18 19  1  0
 19 20  1  0
 20 21  1  0
 21 22  1  1
 22 23  1  0
 23 24  1  0
 24 25  2  0
 25 26  1  0
 26 27  2  0
 27 28  1  0
 25 29  1  0
 13  4  1  0
 28 15  2  0
 12  7  1  0
 21 17  1  0
 28 24  1  0
M  END
>  <AAScore>  (1) 
24.40937873628887

>  <RootName>  (1) 
./4ZLY/04_DeltaGEst/trajectory_01/rank_01/lead_0368

$$$$
