confid_7
     RDKit          3D

 28 31  0  0  0  0  0  0  0  0999 V2000
   25.3300   26.2600   34.7600 N   0  0  0  0  0  0  0  0  0  0  0  0
   26.1200   25.9200   33.6900 C   0  0  0  0  0  0  0  0  0  0  0  0
   25.6300   25.1100   32.9400 O   0  0  0  0  0  0  0  0  0  0  0  0
   27.5200   26.3800   33.4600 C   0  0  0  0  0  0  0  0  0  0  0  0
   28.1600   26.6300   34.6100 N   0  0  0  0  0  0  0  0  0  0  0  0
   29.4800   26.8500   34.5700 N   0  0  0  0  0  0  0  0  0  0  0  0
   30.1900   26.7800   33.4400 C   0  0  0  0  0  0  0  0  0  0  0  0
   31.5600   27.0500   33.5000 C   0  0  0  0  0  0  0  0  0  0  0  0
   32.2700   27.2400   32.3100 C   0  0  0  0  0  0  0  0  0  0  0  0
   31.6100   27.2500   31.0800 C   0  0  0  0  0  0  0  0  0  0  0  0
   30.2700   26.8700   31.0600 C   0  0  0  0  0  0  0  0  0  0  0  0
   29.5100   26.6900   32.2300 C   0  0  0  0  0  0  0  0  0  0  0  0
   28.1400   26.4100   32.2000 C   0  0  0  0  0  0  0  0  0  0  0  0
   27.4300   26.1300   31.0500 N   0  0  0  0  0  0  0  0  0  0  0  0
   26.4045   27.0691   30.5818 C   0  0  0  0  0  0  0  0  0  0  0  0
   26.8937   27.8896   29.3791 C   0  0  0  0  0  0  0  0  0  0  0  0
   27.7859   27.1505   28.4449 N   0  0  0  0  0  0  0  0  0  0  0  0
   27.2602   25.7862   28.1046 C   0  0  1  0  0  0  0  0  0  0  0  0
   27.4299   25.3342   26.6292 C   0  0  0  0  0  0  0  0  0  0  0  0
   28.7790   25.1027   26.3208 O   0  0  0  0  0  0  0  0  0  0  0  0
   27.9455   24.7504   29.0295 C   0  0  0  0  0  0  0  0  0  0  0  0
   27.4550   24.7736   30.4840 C   0  0  0  0  0  0  0  0  0  0  0  0
   28.1480   28.0249   27.2993 C   0  0  0  0  0  0  0  0  0  0  0  0
   28.9837   29.1936   27.7448 C   0  0  0  0  0  0  0  0  0  0  0  0
   28.4870   30.5013   27.8631 C   0  0  0  0  0  0  0  0  0  0  0  0
   29.4257   31.4093   28.3321 C   0  0  0  0  0  0  0  0  0  0  0  0
   30.8648   30.5825   28.5978 S   0  0  0  0  0  0  0  0  0  0  0  0
   30.3164   29.0686   28.1204 C   0  0  0  0  0  0  0  0  0  0  0  0
  1  2  1  0
  2  3  2  0
  2  4  1  0
  4  5  2  0
  5  6  1  0
  6  7  2  0
  7  8  1  0
  8  9  2  0
  9 10  1  0
 10 11  2  0
 11 12  1  0
 12 13  2  0
 13 14  1  0
 14 15  1  0
 15 16  1  0
 16 17  1  0
 17 18  1  0
 18 19  1  6
 19 20  1  0
 18 21  1  0
 21 22  1  0
 17 23  1  0
 23 24  1  0
 24 25  1  0
 25 26  2  0
 26 27  1  0
 27 28  1  0
 13  4  1  0
 22 14  1  0
 28 24  2  0
 12  7  1  0
M  END
>  <AAScore>  (1) 
1.393975307962917

>  <RootName>  (1) 
./4ZLY/04_DeltaGEst/trajectory_03/rank_01/lead_0085

$$$$
