confid_1
     RDKit          3D

 26 28  0  0  0  0  0  0  0  0999 V2000
   24.2000   26.2400   35.6900 N   0  0  0  0  0  0  0  0  0  0  0  0
   24.8500   26.2800   34.4800 C   0  0  0  0  0  0  0  0  0  0  0  0
   24.3100   25.7400   33.5400 O   0  0  0  0  0  0  0  0  0  0  0  0
   26.1800   26.9700   34.4700 C   0  0  0  0  0  0  0  0  0  0  0  0
   26.6500   27.6000   35.5500 N   0  0  0  0  0  0  0  0  0  0  0  0
   27.7900   28.2700   35.6200 N   0  0  0  0  0  0  0  0  0  0  0  0
   28.5400   28.3000   34.5100 C   0  0  0  0  0  0  0  0  0  0  0  0
   29.7700   28.9400   34.5600 C   0  0  0  0  0  0  0  0  0  0  0  0
   30.7000   28.8900   33.5000 C   0  0  0  0  0  0  0  0  0  0  0  0
   30.3700   28.1400   32.3700 C   0  0  0  0  0  0  0  0  0  0  0  0
   29.1200   27.5200   32.2800 C   0  0  0  0  0  0  0  0  0  0  0  0
   28.2100   27.6100   33.3300 C   0  0  0  0  0  0  0  0  0  0  0  0
   26.9700   26.9700   33.3100 C   0  0  0  0  0  0  0  0  0  0  0  0
   26.5300   26.2400   32.2200 N   0  0  0  0  0  0  0  0  0  0  0  0
   22.7753   26.0882   35.8400 C   0  0  0  0  0  0  0  0  0  0  0  0
   21.9433   26.1741   34.7649 N   0  0  0  0  0  0  0  0  0  0  0  0
   20.5937   26.0503   34.8930 C   0  0  0  0  0  0  0  0  0  0  0  0
   19.7538   26.1355   33.7793 O   0  0  0  0  0  0  0  0  0  0  0  0
   20.2456   26.3511   32.4598 C   0  0  0  0  0  0  0  0  0  0  0  0
   19.0836   26.3920   31.4763 C   0  0  0  0  0  0  0  0  0  0  0  0
   19.5658   26.6014   30.1973 F   0  0  0  0  0  0  0  0  0  0  0  0
   18.2218   27.4213   31.8095 F   0  0  0  0  0  0  0  0  0  0  0  0
   18.3964   25.1922   31.5104 F   0  0  0  0  0  0  0  0  0  0  0  0
   20.0477   25.8358   36.1598 C   0  0  0  0  0  0  0  0  0  0  0  0
   20.8704   25.7570   37.2380 N   0  0  0  0  0  0  0  0  0  0  0  0
   22.2175   25.8802   37.1088 C   0  0  0  0  0  0  0  0  0  0  0  0
  1  2  1  0
  2  3  2  0
  2  4  1  0
  4  5  2  0
  5  6  1  0
  6  7  2  0
  7  8  1  0
  8  9  2  0
  9 10  1  0
 10 11  2  0
 11 12  1  0
 12 13  2  0
 13 14  1  0
  1 15  1  0
 15 16  2  0
 16 17  1  0
 17 18  1  0
 18 19  1  0
 19 20  1  0
 20 21  1  0
 20 22  1  0
 20 23  1  0
 17 24  2  0
 24 25  1  0
 25 26  2  0
 13  4  1  0
 26 15  1  0
 12  7  1  0
M  END
>  <AAScore>  (1) 
119.22398131684518

>  <RootName>  (1) 
./4ZLY/04_DeltaGEst/trajectory_04/rank_00/lead_0191

$$$$
