confid_13
     RDKit          3D

 31 34  0  0  0  0  0  0  0  0999 V2000
   24.2000   26.2400   35.6900 N   0  0  0  0  0  0  0  0  0  0  0  0
   24.8500   26.2800   34.4800 C   0  0  0  0  0  0  0  0  0  0  0  0
   24.3100   25.7400   33.5400 O   0  0  0  0  0  0  0  0  0  0  0  0
   26.1800   26.9700   34.4700 C   0  0  0  0  0  0  0  0  0  0  0  0
   26.6500   27.6000   35.5500 N   0  0  0  0  0  0  0  0  0  0  0  0
   27.7900   28.2700   35.6200 N   0  0  0  0  0  0  0  0  0  0  0  0
   28.5400   28.3000   34.5100 C   0  0  0  0  0  0  0  0  0  0  0  0
   29.7700   28.9400   34.5600 C   0  0  0  0  0  0  0  0  0  0  0  0
   30.7000   28.8900   33.5000 C   0  0  0  0  0  0  0  0  0  0  0  0
   30.3700   28.1400   32.3700 C   0  0  0  0  0  0  0  0  0  0  0  0
   29.1200   27.5200   32.2800 C   0  0  0  0  0  0  0  0  0  0  0  0
   28.2100   27.6100   33.3300 C   0  0  0  0  0  0  0  0  0  0  0  0
   26.9700   26.9700   33.3100 C   0  0  0  0  0  0  0  0  0  0  0  0
   26.5300   26.2400   32.2200 N   0  0  0  0  0  0  0  0  0  0  0  0
   22.7894   25.9701   35.8584 C   0  0  0  0  0  0  0  0  0  0  0  0
   22.0290   25.8558   34.8060 N   0  0  0  0  0  0  0  0  0  0  0  0
   20.6559   25.4610   34.7693 C   0  0  0  0  0  0  0  0  0  0  0  0
   19.7091   26.2733   34.2735 C   0  0  0  0  0  0  0  0  0  0  0  0
   18.4083   25.6785   33.7856 C   0  0  0  0  0  0  0  0  0  0  0  0
   17.7008   26.5260   32.7874 N   0  0  0  0  0  0  0  0  0  0  0  0
   18.5325   27.5995   32.1996 C   0  0  0  0  0  0  0  0  0  0  0  0
   19.1411   28.5023   33.2808 C   0  0  0  0  0  0  0  0  0  0  0  0
   19.8429   27.7122   34.2940 N   0  0  0  0  0  0  0  0  0  0  0  0
   20.4244   28.4128   35.4535 C   0  0  0  0  0  0  0  0  0  0  0  0
   19.7546   27.9552   36.7636 C   0  0  0  0  0  0  0  0  0  0  0  0
   20.7489   28.2606   38.2717 S   0  0  0  0  0  0  0  0  0  0  0  0
   22.3326   27.4112   37.8732 C   0  0  0  0  0  0  0  0  0  0  0  0
   22.2197   25.9918   37.2634 C   0  0  0  0  0  0  0  0  0  0  0  0
   16.3963   27.0137   33.2822 C   0  0  0  0  0  0  0  0  0  0  0  0
   15.5354   25.9080   33.4744 O   0  0  0  0  0  0  0  0  0  0  0  0
   14.3015   26.3465   33.9961 C   0  0  0  0  0  0  0  0  0  0  0  0
  1  2  1  0
  2  3  2  0
  2  4  1  0
  4  5  2  0
  5  6  1  0
  6  7  2  0
  7  8  1  0
  8  9  2  0
  9 10  1  0
 10 11  2  0
 11 12  1  0
 12 13  2  0
 13 14  1  0
  1 15  1  0
 15 16  2  0
 16 17  1  0
 17 18  2  0
 18 19  1  0
 19 20  1  0
 20 21  1  0
 21 22  1  0
 22 23  1  0
 23 24  1  0
 24 25  1  0
 25 26  1  0
 26 27  1  0
 27 28  1  0
 20 29  1  0
 29 30  1  0
 30 31  1  0
 13  4  1  0
 28 15  1  0
 12  7  1  0
 23 18  1  0
M  END
>  <AAScore>  (1) 
6636.390281402287

>  <RootName>  (1) 
./4ZLY/04_DeltaGEst/trajectory_04/rank_00/lead_0476

$$$$
