confid_17
     RDKit          3D

 28 31  0  0  0  0  0  0  0  0999 V2000
   24.2000   26.2400   35.6900 N   0  0  0  0  0  0  0  0  0  0  0  0
   24.8500   26.2800   34.4800 C   0  0  0  0  0  0  0  0  0  0  0  0
   24.3100   25.7400   33.5400 O   0  0  0  0  0  0  0  0  0  0  0  0
   26.1800   26.9700   34.4700 C   0  0  0  0  0  0  0  0  0  0  0  0
   26.6500   27.6000   35.5500 N   0  0  0  0  0  0  0  0  0  0  0  0
   27.7900   28.2700   35.6200 N   0  0  0  0  0  0  0  0  0  0  0  0
   28.5400   28.3000   34.5100 C   0  0  0  0  0  0  0  0  0  0  0  0
   29.7700   28.9400   34.5600 C   0  0  0  0  0  0  0  0  0  0  0  0
   30.7000   28.8900   33.5000 C   0  0  0  0  0  0  0  0  0  0  0  0
   30.3700   28.1400   32.3700 C   0  0  0  0  0  0  0  0  0  0  0  0
   29.1200   27.5200   32.2800 C   0  0  0  0  0  0  0  0  0  0  0  0
   28.2100   27.6100   33.3300 C   0  0  0  0  0  0  0  0  0  0  0  0
   26.9700   26.9700   33.3100 C   0  0  0  0  0  0  0  0  0  0  0  0
   26.5300   26.2400   32.2200 N   0  0  0  0  0  0  0  0  0  0  0  0
   30.1408   29.6597   35.7485 N   0  0  0  0  0  0  0  0  0  0  0  0
   30.5999   28.9256   36.9259 C   0  0  0  0  0  0  0  0  0  0  0  0
   29.9599   29.5263   38.1722 C   0  0  0  0  0  0  0  0  0  0  0  0
   30.1177   31.0304   38.2150 C   0  0  0  0  0  0  0  0  0  0  0  0
   30.0407   31.7284   39.4428 C   0  0  0  0  0  0  0  0  0  0  0  0
   30.2063   33.0782   39.4645 N   0  0  0  0  0  0  0  0  0  0  0  0
   30.4132   33.8000   38.3352 C   0  0  0  0  0  0  0  0  0  0  0  0
   30.4576   33.1644   37.0966 C   0  0  0  0  0  0  0  0  0  0  0  0
   30.6610   33.9011   35.9747 F   0  0  0  0  0  0  0  0  0  0  0  0
   30.3028   31.7721   37.0230 C   0  0  0  0  0  0  0  0  0  0  0  0
   30.3934   31.1009   35.6699 C   0  0  0  0  0  0  0  0  0  0  0  0
   29.8054   31.0408   40.6810 N   0  0  0  0  0  0  0  0  0  0  0  0
   28.5291   30.3715   40.9332 C   0  0  0  0  0  0  0  0  0  0  0  0
   30.8167   31.1042   41.7338 C   0  0  0  0  0  0  0  0  0  0  0  0
  1  2  1  0
  2  3  2  0
  2  4  1  0
  4  5  2  0
  5  6  1  0
  6  7  2  0
  7  8  1  0
  8  9  2  0
  9 10  1  0
 10 11  2  0
 11 12  1  0
 12 13  2  0
 13 14  1  0
  8 15  1  0
 15 16  1  0
 16 17  1  0
 17 18  1  0
 18 19  2  0
 19 20  1  0
 20 21  2  0
 21 22  1  0
 22 23  1  0
 22 24  2  0
 24 25  1  0
 19 26  1  0
 26 27  1  0
 26 28  1  0
 13  4  1  0
 25 15  1  0
 12  7  1  0
 24 18  1  0
M  END
>  <AAScore>  (1) 
-8.529931144049037

>  <RootName>  (1) 
./4ZLY/04_DeltaGEst/trajectory_04/rank_01/lead_0129

$$$$
