confid_2
     RDKit          3D

 29 32  0  0  0  0  0  0  0  0999 V2000
   24.6900   26.1200   35.5300 N   0  0  0  0  0  0  0  0  0  0  0  0
   25.6600   25.6700   34.6600 C   0  0  0  0  0  0  0  0  0  0  0  0
   25.2400   25.0100   33.7200 O   0  0  0  0  0  0  0  0  0  0  0  0
   27.0300   26.2200   34.8800 C   0  0  0  0  0  0  0  0  0  0  0  0
   27.3500   26.7300   36.0700 N   0  0  0  0  0  0  0  0  0  0  0  0
   28.5700   27.1800   36.3300 N   0  0  0  0  0  0  0  0  0  0  0  0
   29.5300   27.1100   35.3900 C   0  0  0  0  0  0  0  0  0  0  0  0
   30.8300   27.5700   35.6500 C   0  0  0  0  0  0  0  0  0  0  0  0
   31.8500   27.5400   34.6900 C   0  0  0  0  0  0  0  0  0  0  0  0
   31.5100   27.1200   33.4000 C   0  0  0  0  0  0  0  0  0  0  0  0
   30.2200   26.6300   33.1100 C   0  0  0  0  0  0  0  0  0  0  0  0
   29.2400   26.6600   34.1000 C   0  0  0  0  0  0  0  0  0  0  0  0
   27.9300   26.2600   33.8100 C   0  0  0  0  0  0  0  0  0  0  0  0
   27.5200   25.7100   32.6100 N   0  0  0  0  0  0  0  0  0  0  0  0
   31.1541   28.0737   36.9581 N   0  0  0  0  0  0  0  0  0  0  0  0
   31.1043   27.1597   38.1061 C   0  0  0  0  0  0  0  0  0  0  0  0
   31.3811   29.5213   37.1259 C   0  0  2  0  0  0  0  0  0  0  0  0
   32.8109   29.8108   37.6220 C   0  0  0  0  0  0  0  0  0  0  0  0
   33.0469   31.3228   37.7451 C   0  0  0  0  0  0  0  0  0  0  0  0
   31.9876   31.9709   38.6603 C   0  0  1  0  0  0  0  0  0  0  0  0
   32.2305   33.4547   38.8462 C   0  0  0  0  0  0  0  0  0  0  0  0
   32.3432   33.8915   40.0239 O   0  0  0  0  0  0  0  0  0  0  0  0
   32.3936   34.3719   37.7450 N   0  0  0  0  0  0  0  0  0  0  0  0
   31.6101   34.3536   36.5193 C   0  0  0  0  0  0  0  0  0  0  0  0
   32.0978   35.5385   35.6980 C   0  0  0  0  0  0  0  0  0  0  0  0
   32.8282   36.4517   36.6756 C   0  0  0  0  0  0  0  0  0  0  0  0
   33.1968   35.5784   37.8672 C   0  0  0  0  0  0  0  0  0  0  0  0
   30.5514   31.6579   38.1935 C   0  0  0  0  0  0  0  0  0  0  0  0
   30.3380   30.1430   38.0741 C   0  0  0  0  0  0  0  0  0  0  0  0
  1  2  1  0
  2  3  2  0
  2  4  1  0
  4  5  2  0
  5  6  1  0
  6  7  2  0
  7  8  1  0
  8  9  2  0
  9 10  1  0
 10 11  2  0
 11 12  1  0
 12 13  2  0
 13 14  1  0
  8 15  1  0
 15 16  1  0
 17 15  1  1
 17 18  1  0
 18 19  1  0
 19 20  1  0
 20 21  1  6
 21 22  2  0
 21 23  1  0
 23 24  1  0
 24 25  1  0
 25 26  1  0
 26 27  1  0
 20 28  1  0
 28 29  1  0
 13  4  1  0
 29 17  1  0
 12  7  1  0
 27 23  1  0
M  END
>  <AAScore>  (1) 
-6.310286984781662

>  <RootName>  (1) 
./4ZLY/04_DeltaGEst/trajectory_02/rank_01/lead_0112

$$$$
