confid_12
     RDKit          3D

 28 31  0  0  0  0  0  0  0  0999 V2000
   24.2000   26.2400   35.6900 N   0  0  0  0  0  0  0  0  0  0  0  0
   24.8500   26.2800   34.4800 C   0  0  0  0  0  0  0  0  0  0  0  0
   24.3100   25.7400   33.5400 O   0  0  0  0  0  0  0  0  0  0  0  0
   26.1800   26.9700   34.4700 C   0  0  0  0  0  0  0  0  0  0  0  0
   26.6500   27.6000   35.5500 N   0  0  0  0  0  0  0  0  0  0  0  0
   27.7900   28.2700   35.6200 N   0  0  0  0  0  0  0  0  0  0  0  0
   28.5400   28.3000   34.5100 C   0  0  0  0  0  0  0  0  0  0  0  0
   29.7700   28.9400   34.5600 C   0  0  0  0  0  0  0  0  0  0  0  0
   30.7000   28.8900   33.5000 C   0  0  0  0  0  0  0  0  0  0  0  0
   30.3700   28.1400   32.3700 C   0  0  0  0  0  0  0  0  0  0  0  0
   29.1200   27.5200   32.2800 C   0  0  0  0  0  0  0  0  0  0  0  0
   28.2100   27.6100   33.3300 C   0  0  0  0  0  0  0  0  0  0  0  0
   26.9700   26.9700   33.3100 C   0  0  0  0  0  0  0  0  0  0  0  0
   26.5300   26.2400   32.2200 N   0  0  0  0  0  0  0  0  0  0  0  0
   30.1368   29.6919   35.7318 N   0  0  0  0  0  0  0  0  0  0  0  0
   31.3315   29.3280   36.5025 C   0  0  0  0  0  0  0  0  0  0  0  0
   32.2936   30.5291   36.6281 C   0  0  0  0  0  0  0  0  0  0  0  0
   31.6339   31.8241   36.3431 N   0  0  0  0  0  0  0  0  0  0  0  0
   32.4504   32.9484   36.8367 C   0  0  0  0  0  0  0  0  0  0  0  0
   32.0968   34.2070   36.0996 C   0  0  0  0  0  0  0  0  0  0  0  0
   32.1484   34.4233   34.7324 C   0  0  0  0  0  0  0  0  0  0  0  0
   32.5646   33.4347   33.6926 C   0  0  0  0  0  0  0  0  0  0  0  0
   31.7602   35.6489   34.4639 O   0  0  0  0  0  0  0  0  0  0  0  0
   31.4566   36.2448   35.5956 C   0  0  0  0  0  0  0  0  0  0  0  0
   30.9869   37.6567   35.6962 C   0  0  0  0  0  0  0  0  0  0  0  0
   31.6530   35.3868   36.6608 C   0  0  0  0  0  0  0  0  0  0  0  0
   30.2679   31.8591   36.8985 C   0  0  0  0  0  0  0  0  0  0  0  0
   29.3862   30.9029   36.0906 C   0  0  0  0  0  0  0  0  0  0  0  0
  1  2  1  0
  2  3  2  0
  2  4  1  0
  4  5  2  0
  5  6  1  0
  6  7  2  0
  7  8  1  0
  8  9  2  0
  9 10  1  0
 10 11  2  0
 11 12  1  0
 12 13  2  0
 13 14  1  0
  8 15  1  0
 15 16  1  0
 16 17  1  0
 17 18  1  0
 18 19  1  0
 19 20  1  0
 20 21  2  0
 21 22  1  0
 21 23  1  0
 23 24  1  0
 24 25  1  0
 24 26  2  0
 18 27  1  0
 27 28  1  0
 13  4  1  0
 28 15  1  0
 12  7  1  0
 26 20  1  0
M  END
>  <AAScore>  (1) 
-7.99425311898276

>  <RootName>  (1) 
./4ZLY/04_DeltaGEst/trajectory_04/rank_01/lead_0498

$$$$
