confid_0
     RDKit          3D

 29 33  0  0  0  0  0  0  0  0999 V2000
   24.5700   26.8800   35.5900 N   0  0  0  0  0  0  0  0  0  0  0  0
   25.5000   26.4000   34.6900 C   0  0  0  0  0  0  0  0  0  0  0  0
   25.1700   25.5200   33.9100 O   0  0  0  0  0  0  0  0  0  0  0  0
   26.8400   27.0200   34.7400 C   0  0  0  0  0  0  0  0  0  0  0  0
   27.3800   27.2800   35.9400 N   0  0  0  0  0  0  0  0  0  0  0  0
   28.6200   27.7400   36.0300 N   0  0  0  0  0  0  0  0  0  0  0  0
   29.3800   28.0000   34.9600 C   0  0  0  0  0  0  0  0  0  0  0  0
   30.6700   28.5000   35.1300 C   0  0  0  0  0  0  0  0  0  0  0  0
   31.5400   28.6100   34.0300 C   0  0  0  0  0  0  0  0  0  0  0  0
   31.0900   28.2200   32.7700 C   0  0  0  0  0  0  0  0  0  0  0  0
   29.8000   27.7000   32.6000 C   0  0  0  0  0  0  0  0  0  0  0  0
   28.9600   27.5500   33.7100 C   0  0  0  0  0  0  0  0  0  0  0  0
   27.6600   27.0300   33.5900 C   0  0  0  0  0  0  0  0  0  0  0  0
   27.1600   26.7400   32.3400 N   0  0  0  0  0  0  0  0  0  0  0  0
   23.2308   26.3770   35.6407 C   0  0  0  0  0  0  0  0  0  0  0  0
   22.2285   27.0775   35.2214 N   0  0  0  0  0  0  0  0  0  0  0  0
   21.0857   26.2264   35.2590 C   0  0  0  0  0  0  0  0  0  0  0  0
   21.3962   25.0148   35.7033 C   0  0  0  0  0  0  0  0  0  0  0  0
   20.5081   23.8179   35.6247 C   0  0  0  0  0  0  0  0  0  0  0  0
   20.5177   23.0990   36.8965 N   0  0  0  0  0  0  0  0  0  0  0  0
   19.2719   22.9759   37.6557 C   0  0  0  0  0  0  0  0  0  0  0  0
   21.6360   22.2636   37.2368 C   0  0  0  0  0  0  0  0  0  0  0  0
   21.4217   21.1256   37.7386 O   0  0  0  0  0  0  0  0  0  0  0  0
   23.0354   22.7241   37.0715 C   0  0  0  0  0  0  0  0  0  0  0  0
   24.0830   22.0455   37.5321 C   0  0  0  0  0  0  0  0  0  0  0  0
   25.2772   22.8759   37.4403 C   0  0  0  0  0  0  0  0  0  0  0  0
   24.9519   24.0509   36.9288 C   0  0  0  0  0  0  0  0  0  0  0  0
   23.5229   24.0371   36.6115 C   0  0  0  0  0  0  0  0  0  0  0  0
   22.8179   25.0177   36.0201 C   0  0  0  0  0  0  0  0  0  0  0  0
  1  2  1  0
  2  3  2  0
  2  4  1  0
  4  5  2  0
  5  6  1  0
  6  7  2  0
  7  8  1  0
  8  9  2  0
  9 10  1  0
 10 11  2  0
 11 12  1  0
 12 13  2  0
 13 14  1  0
  1 15  1  0
 15 16  2  0
 16 17  1  0
 17 18  2  0
 18 19  1  0
 19 20  1  0
 20 21  1  0
 20 22  1  0
 22 23  2  0
 22 24  1  0
 24 25  2  0
 25 26  1  0
 26 27  2  0
 27 28  1  0
 28 29  2  0
 13  4  1  0
 29 15  1  0
 12  7  1  0
 29 18  1  0
 28 24  1  0
M  END
>  <AAScore>  (1) 
15095.83742506233

>  <RootName>  (1) 
./4ZLY/04_DeltaGEst/trajectory_05/rank_00/lead_0348

$$$$
