confid_17
     RDKit          3D

 28 31  0  0  0  0  0  0  0  0999 V2000
   24.2000   26.2400   35.6900 N   0  0  0  0  0  0  0  0  0  0  0  0
   24.8500   26.2800   34.4800 C   0  0  0  0  0  0  0  0  0  0  0  0
   24.3100   25.7400   33.5400 O   0  0  0  0  0  0  0  0  0  0  0  0
   26.1800   26.9700   34.4700 C   0  0  0  0  0  0  0  0  0  0  0  0
   26.6500   27.6000   35.5500 N   0  0  0  0  0  0  0  0  0  0  0  0
   27.7900   28.2700   35.6200 N   0  0  0  0  0  0  0  0  0  0  0  0
   28.5400   28.3000   34.5100 C   0  0  0  0  0  0  0  0  0  0  0  0
   29.7700   28.9400   34.5600 C   0  0  0  0  0  0  0  0  0  0  0  0
   30.7000   28.8900   33.5000 C   0  0  0  0  0  0  0  0  0  0  0  0
   30.3700   28.1400   32.3700 C   0  0  0  0  0  0  0  0  0  0  0  0
   29.1200   27.5200   32.2800 C   0  0  0  0  0  0  0  0  0  0  0  0
   28.2100   27.6100   33.3300 C   0  0  0  0  0  0  0  0  0  0  0  0
   26.9700   26.9700   33.3100 C   0  0  0  0  0  0  0  0  0  0  0  0
   26.5300   26.2400   32.2200 N   0  0  0  0  0  0  0  0  0  0  0  0
   30.1451   29.6585   35.7436 N   0  0  0  0  0  0  0  0  0  0  0  0
   30.6483   29.0021   36.9348 C   0  0  0  0  0  0  0  0  0  0  0  0
   30.9716   30.1309   37.9031 C   0  0  0  0  0  0  0  0  0  0  0  0
   31.1629   31.3931   37.0311 C   0  0  0  0  0  0  0  0  0  0  0  0
   30.3104   31.1007   35.7721 C   0  0  0  0  0  0  0  0  0  0  0  0
   30.6917   32.6644   37.7876 C   0  0  0  0  0  0  0  0  0  0  0  0
   31.2789   33.9696   37.2107 C   0  0  0  0  0  0  0  0  0  0  0  0
   31.7777   33.7716   35.8357 N   0  0  0  0  0  0  0  0  0  0  0  0
   32.9318   32.8396   35.8373 C   0  0  0  0  0  0  0  0  0  0  0  0
   32.6575   31.5549   36.6546 C   0  0  0  0  0  0  0  0  0  0  0  0
   32.1366   35.0709   35.2251 C   0  0  0  0  0  0  0  0  0  0  0  0
   32.2268   34.9614   33.7009 C   0  0  0  0  0  0  0  0  0  0  0  0
   32.3355   36.2575   33.1512 O   0  0  0  0  0  0  0  0  0  0  0  0
   32.3933   36.1662   31.7454 C   0  0  0  0  0  0  0  0  0  0  0  0
  1  2  1  0
  2  3  2  0
  2  4  1  0
  4  5  2  0
  5  6  1  0
  6  7  2  0
  7  8  1  0
  8  9  2  0
  9 10  1  0
 10 11  2  0
 11 12  1  0
 12 13  2  0
 13 14  1  0
  8 15  1  0
 15 16  1  0
 16 17  1  0
 17 18  1  0
 18 19  1  0
 18 20  1  0
 20 21  1  0
 21 22  1  0
 22 23  1  0
 23 24  1  0
 22 25  1  0
 25 26  1  0
 26 27  1  0
 27 28  1  0
 13  4  1  0
 19 15  1  0
 12  7  1  0
 24 18  1  0
M  END
>  <AAScore>  (1) 
-7.759343096879253

>  <RootName>  (1) 
./4ZLY/04_DeltaGEst/trajectory_04/rank_01/lead_0121

$$$$
