confid_17
     RDKit          3D

 29 33  0  0  0  0  0  0  0  0999 V2000
   25.3300   26.2600   34.7600 N   0  0  0  0  0  0  0  0  0  0  0  0
   26.1200   25.9200   33.6900 C   0  0  0  0  0  0  0  0  0  0  0  0
   25.6300   25.1100   32.9400 O   0  0  0  0  0  0  0  0  0  0  0  0
   27.5200   26.3800   33.4600 C   0  0  0  0  0  0  0  0  0  0  0  0
   28.1600   26.6300   34.6100 N   0  0  0  0  0  0  0  0  0  0  0  0
   29.4800   26.8500   34.5700 N   0  0  0  0  0  0  0  0  0  0  0  0
   30.1900   26.7800   33.4400 C   0  0  0  0  0  0  0  0  0  0  0  0
   31.5600   27.0500   33.5000 C   0  0  0  0  0  0  0  0  0  0  0  0
   32.2700   27.2400   32.3100 C   0  0  0  0  0  0  0  0  0  0  0  0
   31.6100   27.2500   31.0800 C   0  0  0  0  0  0  0  0  0  0  0  0
   30.2700   26.8700   31.0600 C   0  0  0  0  0  0  0  0  0  0  0  0
   29.5100   26.6900   32.2300 C   0  0  0  0  0  0  0  0  0  0  0  0
   28.1400   26.4100   32.2000 C   0  0  0  0  0  0  0  0  0  0  0  0
   27.4300   26.1300   31.0500 N   0  0  0  0  0  0  0  0  0  0  0  0
   23.8959   26.1104   34.8204 C   0  0  0  0  0  0  0  0  0  0  0  0
   23.1751   25.8367   33.6874 N   0  0  0  0  0  0  0  0  0  0  0  0
   21.8164   25.7367   33.6949 C   0  0  0  0  0  0  0  0  0  0  0  0
   21.1394   25.9089   34.8980 C   0  0  0  0  0  0  0  0  0  0  0  0
   19.6711   25.9325   35.1327 C   0  0  0  0  0  0  0  0  0  0  0  0
   19.5593   26.2777   36.6365 C   0  0  0  0  0  0  0  0  0  0  0  0
   20.9316   26.3430   37.1435 N   0  0  0  0  0  0  0  0  0  0  0  0
   21.2379   26.2622   38.5428 C   0  0  0  0  0  0  0  0  0  0  0  0
   20.5727   26.9619   39.3549 O   0  0  0  0  0  0  0  0  0  0  0  0
   22.2814   25.2920   39.0422 C   0  0  0  0  0  0  0  0  0  0  0  0
   22.1831   24.8827   40.5064 C   0  0  0  0  0  0  0  0  0  0  0  0
   23.2566   25.8631   40.0608 C   0  0  0  0  0  0  0  0  0  0  0  0
   21.8245   26.1515   36.0535 C   0  0  0  0  0  0  0  0  0  0  0  0
   23.2172   26.3027   36.0431 C   0  0  0  0  0  0  0  0  0  0  0  0
   23.8932   26.6772   37.1569 F   0  0  0  0  0  0  0  0  0  0  0  0
  1  2  1  0
  2  3  2  0
  2  4  1  0
  4  5  2  0
  5  6  1  0
  6  7  2  0
  7  8  1  0
  8  9  2  0
  9 10  1  0
 10 11  2  0
 11 12  1  0
 12 13  2  0
 13 14  1  0
  1 15  1  0
 15 16  2  0
 16 17  1  0
 17 18  2  0
 18 19  1  0
 19 20  1  0
 20 21  1  0
 21 22  1  0
 22 23  2  0
 22 24  1  0
 24 25  1  0
 25 26  1  0
 21 27  1  0
 27 28  2  0
 28 29  1  0
 13  4  1  0
 28 15  1  0
 12  7  1  0
 27 18  1  0
 26 24  1  0
M  END
>  <AAScore>  (1) 
5302.650985237206

>  <RootName>  (1) 
./4ZLY/04_DeltaGEst/trajectory_03/rank_00/lead_0028

$$$$
