confid_8
     RDKit          3D

 28 31  0  0  0  0  0  0  0  0999 V2000
   24.5700   26.8800   35.5900 N   0  0  0  0  0  0  0  0  0  0  0  0
   25.5000   26.4000   34.6900 C   0  0  0  0  0  0  0  0  0  0  0  0
   25.1700   25.5200   33.9100 O   0  0  0  0  0  0  0  0  0  0  0  0
   26.8400   27.0200   34.7400 C   0  0  0  0  0  0  0  0  0  0  0  0
   27.3800   27.2800   35.9400 N   0  0  0  0  0  0  0  0  0  0  0  0
   28.6200   27.7400   36.0300 N   0  0  0  0  0  0  0  0  0  0  0  0
   29.3800   28.0000   34.9600 C   0  0  0  0  0  0  0  0  0  0  0  0
   30.6700   28.5000   35.1300 C   0  0  0  0  0  0  0  0  0  0  0  0
   31.5400   28.6100   34.0300 C   0  0  0  0  0  0  0  0  0  0  0  0
   31.0900   28.2200   32.7700 C   0  0  0  0  0  0  0  0  0  0  0  0
   29.8000   27.7000   32.6000 C   0  0  0  0  0  0  0  0  0  0  0  0
   28.9600   27.5500   33.7100 C   0  0  0  0  0  0  0  0  0  0  0  0
   27.6600   27.0300   33.5900 C   0  0  0  0  0  0  0  0  0  0  0  0
   27.1600   26.7400   32.3400 N   0  0  0  0  0  0  0  0  0  0  0  0
   23.1484   26.7011   35.4647 C   0  0  0  0  0  0  0  0  0  0  0  0
   22.3950   26.6036   36.5929 N   0  0  0  0  0  0  0  0  0  0  0  0
   21.0456   26.4541   36.5524 C   0  0  0  0  0  0  0  0  0  0  0  0
   20.3747   26.4070   35.3222 C   0  0  0  0  0  0  0  0  0  0  0  0
   18.8677   26.2859   35.2890 C   0  0  2  0  0  0  0  0  0  0  0  0
   18.3698   25.8937   33.8870 C   0  0  0  0  0  0  0  0  0  0  0  0
   19.0108   26.7453   32.8677 N   0  0  0  0  0  0  0  0  0  0  0  0
   18.3784   26.5304   31.5573 C   0  0  0  0  0  0  0  0  0  0  0  0
   20.4541   26.4452   32.7858 C   0  0  0  0  0  0  0  0  0  0  0  0
   21.1217   26.5481   34.1362 C   0  0  0  0  0  0  0  0  0  0  0  0
   22.5141   26.6869   34.2111 C   0  0  0  0  0  0  0  0  0  0  0  0
   18.2363   27.5885   35.7366 C   0  0  0  0  0  0  0  0  0  0  0  0
   18.4488   28.6157   35.1087 O   0  0  0  0  0  0  0  0  0  0  0  0
   17.3548   27.6504   36.9492 C   0  0  0  0  0  0  0  0  0  0  0  0
  1  2  1  0
  2  3  2  0
  2  4  1  0
  4  5  2  0
  5  6  1  0
  6  7  2  0
  7  8  1  0
  8  9  2  0
  9 10  1  0
 10 11  2  0
 11 12  1  0
 12 13  2  0
 13 14  1  0
  1 15  1  0
 15 16  2  0
 16 17  1  0
 17 18  2  0
 18 19  1  0
 19 20  1  0
 20 21  1  0
 21 22  1  0
 21 23  1  0
 23 24  1  0
 24 25  2  0
 19 26  1  6
 26 27  2  0
 26 28  1  0
 13  4  1  0
 25 15  1  0
 12  7  1  0
 24 18  1  0
M  END
>  <AAScore>  (1) 
618.5668985938174

>  <RootName>  (1) 
./4ZLY/04_DeltaGEst/trajectory_05/rank_00/lead_0280

$$$$
