confid_8
     RDKit          3D

 27 30  0  0  0  0  0  0  0  0999 V2000
   24.4800   26.1000   36.1300 N   0  0  0  0  0  0  0  0  0  0  0  0
   25.2500   26.2500   34.9900 C   0  0  0  0  0  0  0  0  0  0  0  0
   24.7400   25.7600   33.9900 O   0  0  0  0  0  0  0  0  0  0  0  0
   26.5900   26.8900   34.9600 C   0  0  0  0  0  0  0  0  0  0  0  0
   27.0600   27.2400   36.1600 N   0  0  0  0  0  0  0  0  0  0  0  0
   28.3000   27.7100   36.2400 N   0  0  0  0  0  0  0  0  0  0  0  0
   29.0500   27.9600   35.1500 C   0  0  0  0  0  0  0  0  0  0  0  0
   30.3400   28.4900   35.2600 C   0  0  0  0  0  0  0  0  0  0  0  0
   31.1100   28.8200   34.1400 C   0  0  0  0  0  0  0  0  0  0  0  0
   30.5200   28.6700   32.8800 C   0  0  0  0  0  0  0  0  0  0  0  0
   29.2900   28.0200   32.7700 C   0  0  0  0  0  0  0  0  0  0  0  0
   28.5200   27.7100   33.8900 C   0  0  0  0  0  0  0  0  0  0  0  0
   27.2700   27.0800   33.7600 C   0  0  0  0  0  0  0  0  0  0  0  0
   26.7500   26.8800   32.4900 N   0  0  0  0  0  0  0  0  0  0  0  0
   23.0902   25.7390   36.1195 C   0  0  0  0  0  0  0  0  0  0  0  0
   22.6135   24.7058   36.8451 N   0  0  0  0  0  0  0  0  0  0  0  0
   21.2867   24.7227   36.6127 C   0  0  0  0  0  0  0  0  0  0  0  0
   20.9825   25.7656   35.7644 C   0  0  0  0  0  0  0  0  0  0  0  0
   19.5959   26.2215   35.4154 C   0  0  0  0  0  0  0  0  0  0  0  0
   19.2679   27.4117   36.2301 N   0  0  0  0  0  0  0  0  0  0  0  0
   18.5023   27.0344   37.4294 C   0  0  0  0  0  0  0  0  0  0  0  0
   18.5599   28.4630   35.4732 C   0  0  0  0  0  0  0  0  0  0  0  0
   19.4608   29.1650   34.4370 C   0  0  0  0  0  0  0  0  0  0  0  0
   20.7437   29.8174   35.0011 C   0  0  0  0  0  0  0  0  0  0  0  0
   21.7809   28.8749   35.6495 C   0  0  0  0  0  0  0  0  0  0  0  0
   22.2415   27.7048   34.7514 C   0  0  0  0  0  0  0  0  0  0  0  0
   22.1239   26.4197   35.4564 N   0  0  0  0  0  0  0  0  0  0  0  0
  1  2  1  0
  2  3  2  0
  2  4  1  0
  4  5  2  0
  5  6  1  0
  6  7  2  0
  7  8  1  0
  8  9  2  0
  9 10  1  0
 10 11  2  0
 11 12  1  0
 12 13  2  0
 13 14  1  0
  1 15  1  0
 15 16  2  0
 16 17  1  0
 17 18  2  0
 18 19  1  0
 19 20  1  0
 20 21  1  0
 20 22  1  0
 22 23  1  0
 23 24  1  0
 24 25  1  0
 25 26  1  0
 26 27  1  0
 13  4  1  0
 27 15  1  0
 12  7  1  0
 27 18  1  0
M  END
>  <AAScore>  (1) 
2406.974052778596

>  <RootName>  (1) 
./4ZLY/04_DeltaGEst/trajectory_00/rank_01/lead_0368

$$$$
