confid_4
     RDKit          3D

 29 33  0  0  0  0  0  0  0  0999 V2000
   24.5700   26.8800   35.5900 N   0  0  0  0  0  0  0  0  0  0  0  0
   25.5000   26.4000   34.6900 C   0  0  0  0  0  0  0  0  0  0  0  0
   25.1700   25.5200   33.9100 O   0  0  0  0  0  0  0  0  0  0  0  0
   26.8400   27.0200   34.7400 C   0  0  0  0  0  0  0  0  0  0  0  0
   27.3800   27.2800   35.9400 N   0  0  0  0  0  0  0  0  0  0  0  0
   28.6200   27.7400   36.0300 N   0  0  0  0  0  0  0  0  0  0  0  0
   29.3800   28.0000   34.9600 C   0  0  0  0  0  0  0  0  0  0  0  0
   30.6700   28.5000   35.1300 C   0  0  0  0  0  0  0  0  0  0  0  0
   31.5400   28.6100   34.0300 C   0  0  0  0  0  0  0  0  0  0  0  0
   31.0900   28.2200   32.7700 C   0  0  0  0  0  0  0  0  0  0  0  0
   29.8000   27.7000   32.6000 C   0  0  0  0  0  0  0  0  0  0  0  0
   28.9600   27.5500   33.7100 C   0  0  0  0  0  0  0  0  0  0  0  0
   27.6600   27.0300   33.5900 C   0  0  0  0  0  0  0  0  0  0  0  0
   27.1600   26.7400   32.3400 N   0  0  0  0  0  0  0  0  0  0  0  0
   23.2480   26.3499   35.5842 C   0  0  0  0  0  0  0  0  0  0  0  0
   22.9038   25.4030   34.6817 N   0  0  0  0  0  0  0  0  0  0  0  0
   21.6713   24.8685   34.6185 C   0  0  0  0  0  0  0  0  0  0  0  0
   20.6686   25.2685   35.4942 C   0  0  0  0  0  0  0  0  0  0  0  0
   19.5800   25.6698   36.4089 C   0  0  1  0  0  0  0  0  0  0  0  0
   19.1920   24.8330   37.5823 C   0  0  0  0  0  0  0  0  0  0  0  0
   18.7633   23.5361   37.1491 N   0  0  0  0  0  0  0  0  0  0  0  0
   19.7781   22.6885   36.6095 C   0  0  0  0  0  0  0  0  0  0  0  0
   19.4348   22.1603   35.2208 C   0  0  0  0  0  0  0  0  0  0  0  0
   18.2537   21.4203   35.3657 O   0  0  0  0  0  0  0  0  0  0  0  0
   17.2322   22.1951   35.8707 C   0  0  0  0  0  0  0  0  0  0  0  0
   17.6268   23.5763   36.2807 C   0  0  0  0  0  0  0  0  0  0  0  0
   20.9624   26.2254   36.4305 C   0  0  0  0  0  0  0  0  0  0  0  0
   22.2534   26.7438   36.4503 C   0  0  0  0  0  0  0  0  0  0  0  0
   22.5702   27.7777   37.4848 C   0  0  0  0  0  0  0  0  0  0  0  0
  1  2  1  0
  2  3  2  0
  2  4  1  0
  4  5  2  0
  5  6  1  0
  6  7  2  0
  7  8  1  0
  8  9  2  0
  9 10  1  0
 10 11  2  0
 11 12  1  0
 12 13  2  0
 13 14  1  0
  1 15  1  0
 15 16  2  0
 16 17  1  0
 17 18  2  0
 18 19  1  0
 19 20  1  1
 20 21  1  0
 21 22  1  0
 22 23  1  0
 23 24  1  0
 24 25  1  0
 25 26  1  0
 19 27  1  0
 27 28  2  0
 28 29  1  0
 13  4  1  0
 28 15  1  0
 12  7  1  0
 27 18  1  0
 26 21  1  0
M  END
>  <AAScore>  (1) 
899.694241535284

>  <RootName>  (1) 
./4ZLY/04_DeltaGEst/trajectory_05/rank_00/lead_0422

$$$$
