confid_0
     RDKit          3D

 31 35  0  0  0  0  0  0  0  0999 V2000
   25.3300   26.2600   34.7600 N   0  0  0  0  0  0  0  0  0  0  0  0
   26.1200   25.9200   33.6900 C   0  0  0  0  0  0  0  0  0  0  0  0
   25.6300   25.1100   32.9400 O   0  0  0  0  0  0  0  0  0  0  0  0
   27.5200   26.3800   33.4600 C   0  0  0  0  0  0  0  0  0  0  0  0
   28.1600   26.6300   34.6100 N   0  0  0  0  0  0  0  0  0  0  0  0
   29.4800   26.8500   34.5700 N   0  0  0  0  0  0  0  0  0  0  0  0
   30.1900   26.7800   33.4400 C   0  0  0  0  0  0  0  0  0  0  0  0
   31.5600   27.0500   33.5000 C   0  0  0  0  0  0  0  0  0  0  0  0
   32.2700   27.2400   32.3100 C   0  0  0  0  0  0  0  0  0  0  0  0
   31.6100   27.2500   31.0800 C   0  0  0  0  0  0  0  0  0  0  0  0
   30.2700   26.8700   31.0600 C   0  0  0  0  0  0  0  0  0  0  0  0
   29.5100   26.6900   32.2300 C   0  0  0  0  0  0  0  0  0  0  0  0
   28.1400   26.4100   32.2000 C   0  0  0  0  0  0  0  0  0  0  0  0
   27.4300   26.1300   31.0500 N   0  0  0  0  0  0  0  0  0  0  0  0
   24.1387   25.5502   35.1546 C   0  0  0  0  0  0  0  0  0  0  0  0
   24.1685   24.2424   35.1094 N   0  0  0  0  0  0  0  0  0  0  0  0
   23.2512   23.1656   35.3705 C   0  0  0  0  0  0  0  0  0  0  0  0
   21.9242   23.2628   35.3903 C   0  0  0  0  0  0  0  0  0  0  0  0
   20.7841   22.3240   35.1118 C   0  0  0  0  0  0  0  0  0  0  0  0
   19.8085   23.3140   35.0660 O   0  0  0  0  0  0  0  0  0  0  0  0
   20.7838   24.2316   35.4385 C   0  0  2  0  0  0  0  0  0  0  0  0
   20.9653   25.3700   34.4435 C   0  0  0  0  0  0  0  0  0  0  0  0
   21.7097   26.4407   35.1664 C   0  0  0  0  0  0  0  0  0  0  0  0
   23.0064   26.3663   35.6661 C   0  0  0  0  0  0  0  0  0  0  0  0
   23.1599   27.4746   36.4855 C   0  0  0  0  0  0  0  0  0  0  0  0
   22.0097   28.1742   36.5243 N   0  0  0  0  0  0  0  0  0  0  0  0
   21.1165   27.5446   35.7469 C   0  0  0  0  0  0  0  0  0  0  0  0
   21.7485   29.3449   37.2150 O   0  0  0  0  0  0  0  0  0  0  0  0
   22.7446   30.0766   37.9324 C   0  0  0  0  0  0  0  0  0  0  0  0
   23.6731   30.8044   36.9517 C   0  0  0  0  0  0  0  0  0  0  0  0
   22.0488   31.0833   38.8512 C   0  0  0  0  0  0  0  0  0  0  0  0
  1  2  1  0
  2  3  2  0
  2  4  1  0
  4  5  2  0
  5  6  1  0
  6  7  2  0
  7  8  1  0
  8  9  2  0
  9 10  1  0
 10 11  2  0
 11 12  1  0
 12 13  2  0
 13 14  1  0
  1 15  1  0
 15 16  2  0
 16 17  1  0
 17 18  2  0
 18 19  1  0
 19 20  1  0
 20 21  1  0
 21 22  1  6
 22 23  1  0
 23 24  1  0
 24 25  2  0
 25 26  1  0
 26 27  1  0
 26 28  1  0
 28 29  1  0
 29 30  1  0
 29 31  1  0
 13  4  1  0
 24 15  1  0
 12  7  1  0
 21 18  1  0
 27 23  2  0
M  END
>  <AAScore>  (1) 
2928.567780359328

>  <RootName>  (1) 
./4ZLY/04_DeltaGEst/trajectory_03/rank_00/lead_0463

$$$$
