confid_17
     RDKit          3D

 28 31  0  0  0  0  0  0  0  0999 V2000
   24.5700   26.8800   35.5900 N   0  0  0  0  0  0  0  0  0  0  0  0
   25.5000   26.4000   34.6900 C   0  0  0  0  0  0  0  0  0  0  0  0
   25.1700   25.5200   33.9100 O   0  0  0  0  0  0  0  0  0  0  0  0
   26.8400   27.0200   34.7400 C   0  0  0  0  0  0  0  0  0  0  0  0
   27.3800   27.2800   35.9400 N   0  0  0  0  0  0  0  0  0  0  0  0
   28.6200   27.7400   36.0300 N   0  0  0  0  0  0  0  0  0  0  0  0
   29.3800   28.0000   34.9600 C   0  0  0  0  0  0  0  0  0  0  0  0
   30.6700   28.5000   35.1300 C   0  0  0  0  0  0  0  0  0  0  0  0
   31.5400   28.6100   34.0300 C   0  0  0  0  0  0  0  0  0  0  0  0
   31.0900   28.2200   32.7700 C   0  0  0  0  0  0  0  0  0  0  0  0
   29.8000   27.7000   32.6000 C   0  0  0  0  0  0  0  0  0  0  0  0
   28.9600   27.5500   33.7100 C   0  0  0  0  0  0  0  0  0  0  0  0
   27.6600   27.0300   33.5900 C   0  0  0  0  0  0  0  0  0  0  0  0
   27.1600   26.7400   32.3400 N   0  0  0  0  0  0  0  0  0  0  0  0
   23.1778   26.5236   35.6099 C   0  0  0  0  0  0  0  0  0  0  0  0
   22.5486   26.4201   36.8066 N   0  0  0  0  0  0  0  0  0  0  0  0
   21.2324   26.1152   36.9077 C   0  0  0  0  0  0  0  0  0  0  0  0
   20.4493   25.9147   35.7591 C   0  0  0  0  0  0  0  0  0  0  0  0
   18.9784   25.5789   35.9504 C   0  0  0  0  0  0  0  0  0  0  0  0
   18.0687   26.3388   35.0673 N   0  0  0  0  0  0  0  0  0  0  0  0
   18.2819   27.7957   35.1031 C   0  0  0  0  0  0  0  0  0  0  0  0
   17.8647   25.7917   33.7017 C   0  0  2  0  0  0  0  0  0  0  0  0
   16.6307   24.8855   33.7121 C   0  0  0  0  0  0  0  0  0  0  0  0
   19.0791   25.0244   33.1405 C   0  0  0  0  0  0  0  0  0  0  0  0
   20.3317   25.8404   33.2151 C   0  0  0  0  0  0  0  0  0  0  0  0
   20.7696   26.3657   32.1562 O   0  0  0  0  0  0  0  0  0  0  0  0
   21.0725   26.0223   34.4889 C   0  0  0  0  0  0  0  0  0  0  0  0
   22.4395   26.3497   34.4300 C   0  0  0  0  0  0  0  0  0  0  0  0
  1  2  1  0
  2  3  2  0
  2  4  1  0
  4  5  2  0
  5  6  1  0
  6  7  2  0
  7  8  1  0
  8  9  2  0
  9 10  1  0
 10 11  2  0
 11 12  1  0
 12 13  2  0
 13 14  1  0
  1 15  1  0
 15 16  2  0
 16 17  1  0
 17 18  2  0
 18 19  1  0
 19 20  1  0
 20 21  1  0
 20 22  1  0
 22 23  1  1
 22 24  1  0
 24 25  1  0
 25 26  2  0
 25 27  1  0
 27 28  2  0
 13  4  1  0
 28 15  1  0
 12  7  1  0
 27 18  1  0
M  END
>  <AAScore>  (1) 
1576.861134936613

>  <RootName>  (1) 
./4ZLY/04_DeltaGEst/trajectory_05/rank_00/lead_0102

$$$$
