confid_7
     RDKit          3D

 29 32  0  0  0  0  0  0  0  0999 V2000
   24.6900   26.1200   35.5300 N   0  0  0  0  0  0  0  0  0  0  0  0
   25.6600   25.6700   34.6600 C   0  0  0  0  0  0  0  0  0  0  0  0
   25.2400   25.0100   33.7200 O   0  0  0  0  0  0  0  0  0  0  0  0
   27.0300   26.2200   34.8800 C   0  0  0  0  0  0  0  0  0  0  0  0
   27.3500   26.7300   36.0700 N   0  0  0  0  0  0  0  0  0  0  0  0
   28.5700   27.1800   36.3300 N   0  0  0  0  0  0  0  0  0  0  0  0
   29.5300   27.1100   35.3900 C   0  0  0  0  0  0  0  0  0  0  0  0
   30.8300   27.5700   35.6500 C   0  0  0  0  0  0  0  0  0  0  0  0
   31.8500   27.5400   34.6900 C   0  0  0  0  0  0  0  0  0  0  0  0
   31.5100   27.1200   33.4000 C   0  0  0  0  0  0  0  0  0  0  0  0
   30.2200   26.6300   33.1100 C   0  0  0  0  0  0  0  0  0  0  0  0
   29.2400   26.6600   34.1000 C   0  0  0  0  0  0  0  0  0  0  0  0
   27.9300   26.2600   33.8100 C   0  0  0  0  0  0  0  0  0  0  0  0
   27.5200   25.7100   32.6100 N   0  0  0  0  0  0  0  0  0  0  0  0
   31.1426   28.0612   36.9636 N   0  0  0  0  0  0  0  0  0  0  0  0
   32.2091   27.4351   37.7467 C   0  0  0  0  0  0  0  0  0  0  0  0
   31.8317   27.4678   39.2270 C   0  0  0  0  0  0  0  0  0  0  0  0
   31.5171   28.8515   39.6339 N   0  0  0  0  0  0  0  0  0  0  0  0
   31.3689   29.0119   41.1006 C   0  0  0  0  0  0  0  0  0  0  0  0
   30.2129   28.2260   41.7134 C   0  0  0  0  0  0  0  0  0  0  0  0
   28.9572   28.8136   42.0347 C   0  0  0  0  0  0  0  0  0  0  0  0
   27.9304   28.0018   42.5484 C   0  0  0  0  0  0  0  0  0  0  0  0
   28.1424   26.6451   42.7891 C   0  0  0  0  0  0  0  0  0  0  0  0
   29.3946   26.0743   42.5471 C   0  0  0  0  0  0  0  0  0  0  0  0
   29.6193   24.6115   42.7935 C   0  0  0  0  0  0  0  0  0  0  0  0
   30.4187   26.8638   42.0087 C   0  0  0  0  0  0  0  0  0  0  0  0
   28.6773   30.2843   41.8555 C   0  0  0  0  0  0  0  0  0  0  0  0
   30.3695   29.3885   38.8784 C   0  0  0  0  0  0  0  0  0  0  0  0
   30.6700   29.3849   37.3763 C   0  0  0  0  0  0  0  0  0  0  0  0
  1  2  1  0
  2  3  2  0
  2  4  1  0
  4  5  2  0
  5  6  1  0
  6  7  2  0
  7  8  1  0
  8  9  2  0
  9 10  1  0
 10 11  2  0
 11 12  1  0
 12 13  2  0
 13 14  1  0
  8 15  1  0
 15 16  1  0
 16 17  1  0
 17 18  1  0
 18 19  1  0
 19 20  1  0
 20 21  2  0
 21 22  1  0
 22 23  2  0
 23 24  1  0
 24 25  1  0
 24 26  2  0
 21 27  1  0
 18 28  1  0
 28 29  1  0
 13  4  1  0
 29 15  1  0
 12  7  1  0
 26 20  1  0
M  END
>  <AAScore>  (1) 
-2.380918707733389

>  <RootName>  (1) 
./4ZLY/04_DeltaGEst/trajectory_02/rank_01/lead_0076

$$$$
