confid_8
     RDKit          3D

 27 30  0  0  0  0  0  0  0  0999 V2000
   24.5700   26.8800   35.5900 N   0  0  0  0  0  0  0  0  0  0  0  0
   25.5000   26.4000   34.6900 C   0  0  0  0  0  0  0  0  0  0  0  0
   25.1700   25.5200   33.9100 O   0  0  0  0  0  0  0  0  0  0  0  0
   26.8400   27.0200   34.7400 C   0  0  0  0  0  0  0  0  0  0  0  0
   27.3800   27.2800   35.9400 N   0  0  0  0  0  0  0  0  0  0  0  0
   28.6200   27.7400   36.0300 N   0  0  0  0  0  0  0  0  0  0  0  0
   29.3800   28.0000   34.9600 C   0  0  0  0  0  0  0  0  0  0  0  0
   30.6700   28.5000   35.1300 C   0  0  0  0  0  0  0  0  0  0  0  0
   31.5400   28.6100   34.0300 C   0  0  0  0  0  0  0  0  0  0  0  0
   31.0900   28.2200   32.7700 C   0  0  0  0  0  0  0  0  0  0  0  0
   29.8000   27.7000   32.6000 C   0  0  0  0  0  0  0  0  0  0  0  0
   28.9600   27.5500   33.7100 C   0  0  0  0  0  0  0  0  0  0  0  0
   27.6600   27.0300   33.5900 C   0  0  0  0  0  0  0  0  0  0  0  0
   27.1600   26.7400   32.3400 N   0  0  0  0  0  0  0  0  0  0  0  0
   23.7228   26.0462   36.3954 C   0  0  0  0  0  0  0  0  0  0  0  0
   22.6105   26.5001   36.8774 N   0  0  0  0  0  0  0  0  0  0  0  0
   22.1274   25.5498   37.8142 C   0  0  0  0  0  0  0  0  0  0  0  0
   22.9711   24.5396   37.9405 C   0  0  0  0  0  0  0  0  0  0  0  0
   22.9621   23.5369   39.0557 C   0  0  0  0  0  0  0  0  0  0  0  0
   24.3116   23.0016   39.3157 N   0  0  0  0  0  0  0  0  0  0  0  0
   24.4495   21.8658   40.2288 C   0  0  0  0  0  0  0  0  0  0  0  0
   25.5042   23.6128   38.7655 C   0  0  0  0  0  0  0  0  0  0  0  0
   26.6450   23.1912   39.0995 O   0  0  0  0  0  0  0  0  0  0  0  0
   25.4110   24.7809   37.8186 C   0  0  0  0  0  0  0  0  0  0  0  0
   24.1131   24.7106   36.9960 C   0  0  2  0  0  0  0  0  0  0  0  0
   24.1285   23.5572   35.9687 C   0  0  0  0  0  0  0  0  0  0  0  0
   23.0475   23.6443   35.1067 F   0  0  0  0  0  0  0  0  0  0  0  0
  1  2  1  0
  2  3  2  0
  2  4  1  0
  4  5  2  0
  5  6  1  0
  6  7  2  0
  7  8  1  0
  8  9  2  0
  9 10  1  0
 10 11  2  0
 11 12  1  0
 12 13  2  0
 13 14  1  0
  1 15  1  0
 15 16  2  0
 16 17  1  0
 17 18  2  0
 18 19  1  0
 19 20  1  0
 20 21  1  0
 20 22  1  0
 22 23  2  0
 22 24  1  0
 24 25  1  0
 25 26  1  6
 26 27  1  0
 13  4  1  0
 25 15  1  0
 12  7  1  0
 25 18  1  0
M  END
>  <AAScore>  (1) 
233.3790035312892

>  <RootName>  (1) 
./4ZLY/04_DeltaGEst/trajectory_05/rank_00/lead_0118

$$$$
