confid_6
     RDKit          3D

 31 35  0  0  0  0  0  0  0  0999 V2000
   25.3300   26.2600   34.7600 N   0  0  0  0  0  0  0  0  0  0  0  0
   26.1200   25.9200   33.6900 C   0  0  0  0  0  0  0  0  0  0  0  0
   25.6300   25.1100   32.9400 O   0  0  0  0  0  0  0  0  0  0  0  0
   27.5200   26.3800   33.4600 C   0  0  0  0  0  0  0  0  0  0  0  0
   28.1600   26.6300   34.6100 N   0  0  0  0  0  0  0  0  0  0  0  0
   29.4800   26.8500   34.5700 N   0  0  0  0  0  0  0  0  0  0  0  0
   30.1900   26.7800   33.4400 C   0  0  0  0  0  0  0  0  0  0  0  0
   31.5600   27.0500   33.5000 C   0  0  0  0  0  0  0  0  0  0  0  0
   32.2700   27.2400   32.3100 C   0  0  0  0  0  0  0  0  0  0  0  0
   31.6100   27.2500   31.0800 C   0  0  0  0  0  0  0  0  0  0  0  0
   30.2700   26.8700   31.0600 C   0  0  0  0  0  0  0  0  0  0  0  0
   29.5100   26.6900   32.2300 C   0  0  0  0  0  0  0  0  0  0  0  0
   28.1400   26.4100   32.2000 C   0  0  0  0  0  0  0  0  0  0  0  0
   27.4300   26.1300   31.0500 N   0  0  0  0  0  0  0  0  0  0  0  0
   26.4892   27.1185   30.5166 C   0  0  0  0  0  0  0  0  0  0  0  0
   25.5432   26.4588   29.5114 C   0  0  0  0  0  0  0  0  0  0  0  0
   26.2895   25.7991   28.4173 N   0  0  0  0  0  0  0  0  0  0  0  0
   25.3704   24.9916   27.5885 C   0  0  0  0  0  0  0  0  0  0  0  0
   25.9453   24.7501   26.2180 C   0  0  0  0  0  0  0  0  0  0  0  0
   26.9605   25.4717   25.7017 N   0  0  0  0  0  0  0  0  0  0  0  0
   27.0934   25.0088   24.4446 C   0  0  0  0  0  0  0  0  0  0  0  0
   26.1899   24.0538   24.1329 N   0  0  0  0  0  0  0  0  0  0  0  0
   26.1968   23.3118   22.8654 C   0  0  0  0  0  0  0  0  0  0  0  0
   24.8004   23.1937   22.2278 C   0  0  0  0  0  0  0  0  0  0  0  0
   24.1918   21.7896   22.3970 C   0  0  0  0  0  0  0  0  0  0  0  0
   23.4330   21.6741   23.5812 O   0  0  0  0  0  0  0  0  0  0  0  0
   24.2560   21.6595   24.7315 C   0  0  0  0  0  0  0  0  0  0  0  0
   24.2108   23.0312   25.4169 C   0  0  0  0  0  0  0  0  0  0  0  0
   25.4669   23.8616   25.2644 C   0  0  0  0  0  0  0  0  0  0  0  0
   27.4792   25.0146   28.8583 C   0  0  0  0  0  0  0  0  0  0  0  0
   27.5844   24.8346   30.3804 C   0  0  0  0  0  0  0  0  0  0  0  0
  1  2  1  0
  2  3  2  0
  2  4  1  0
  4  5  2  0
  5  6  1  0
  6  7  2  0
  7  8  1  0
  8  9  2  0
  9 10  1  0
 10 11  2  0
 11 12  1  0
 12 13  2  0
 13 14  1  0
 14 15  1  0
 15 16  1  0
 16 17  1  0
 17 18  1  0
 18 19  1  0
 19 20  1  0
 20 21  2  0
 21 22  1  0
 22 23  1  0
 23 24  1  0
 24 25  1  0
 25 26  1  0
 26 27  1  0
 27 28  1  0
 28 29  1  0
 17 30  1  0
 30 31  1  0
 13  4  1  0
 31 14  1  0
 12  7  1  0
 29 19  2  0
 29 22  1  0
M  END
>  <AAScore>  (1) 
154.27579312250106

>  <RootName>  (1) 
./4ZLY/04_DeltaGEst/trajectory_03/rank_01/lead_0306

$$$$
