confid_15
     RDKit          3D

 28 31  0  0  0  0  0  0  0  0999 V2000
   24.6900   26.1200   35.5300 N   0  0  0  0  0  0  0  0  0  0  0  0
   25.6600   25.6700   34.6600 C   0  0  0  0  0  0  0  0  0  0  0  0
   25.2400   25.0100   33.7200 O   0  0  0  0  0  0  0  0  0  0  0  0
   27.0300   26.2200   34.8800 C   0  0  0  0  0  0  0  0  0  0  0  0
   27.3500   26.7300   36.0700 N   0  0  0  0  0  0  0  0  0  0  0  0
   28.5700   27.1800   36.3300 N   0  0  0  0  0  0  0  0  0  0  0  0
   29.5300   27.1100   35.3900 C   0  0  0  0  0  0  0  0  0  0  0  0
   30.8300   27.5700   35.6500 C   0  0  0  0  0  0  0  0  0  0  0  0
   31.8500   27.5400   34.6900 C   0  0  0  0  0  0  0  0  0  0  0  0
   31.5100   27.1200   33.4000 C   0  0  0  0  0  0  0  0  0  0  0  0
   30.2200   26.6300   33.1100 C   0  0  0  0  0  0  0  0  0  0  0  0
   29.2400   26.6600   34.1000 C   0  0  0  0  0  0  0  0  0  0  0  0
   27.9300   26.2600   33.8100 C   0  0  0  0  0  0  0  0  0  0  0  0
   27.5200   25.7100   32.6100 N   0  0  0  0  0  0  0  0  0  0  0  0
   31.1475   28.0716   36.9561 N   0  0  0  0  0  0  0  0  0  0  0  0
   31.7842   27.1746   37.9280 C   0  0  0  0  0  0  0  0  0  0  0  0
   31.4906   27.5921   39.3753 C   0  0  0  0  0  0  0  0  0  0  0  0
   30.0144   27.7936   39.6031 C   0  0  0  0  0  0  0  0  0  0  0  0
   29.2598   27.0282   40.5008 C   0  0  0  0  0  0  0  0  0  0  0  0
   29.7301   25.9089   41.2658 N   0  0  0  0  0  0  0  0  0  0  0  0
   30.2525   24.7161   40.5990 C   0  0  0  0  0  0  0  0  0  0  0  0
   29.6230   25.9415   42.7230 C   0  0  0  0  0  0  0  0  0  0  0  0
   27.6892   27.6200   40.5732 S   0  0  0  0  0  0  0  0  0  0  0  0
   27.9297   28.8386   39.4463 C   0  0  0  0  0  0  0  0  0  0  0  0
   26.9757   29.7177   39.0503 F   0  0  0  0  0  0  0  0  0  0  0  0
   29.2451   28.8153   38.9869 C   0  0  0  0  0  0  0  0  0  0  0  0
   29.7209   29.8350   37.9675 C   0  0  0  0  0  0  0  0  0  0  0  0
   31.0285   29.5078   37.2278 C   0  0  0  0  0  0  0  0  0  0  0  0
  1  2  1  0
  2  3  2  0
  2  4  1  0
  4  5  2  0
  5  6  1  0
  6  7  2  0
  7  8  1  0
  8  9  2  0
  9 10  1  0
 10 11  2  0
 11 12  1  0
 12 13  2  0
 13 14  1  0
  8 15  1  0
 15 16  1  0
 16 17  1  0
 17 18  1  0
 18 19  2  0
 19 20  1  0
 20 21  1  0
 20 22  1  0
 19 23  1  0
 23 24  1  0
 24 25  1  0
 24 26  2  0
 26 27  1  0
 27 28  1  0
 13  4  1  0
 28 15  1  0
 12  7  1  0
 26 18  1  0
M  END
>  <AAScore>  (1) 
1.302445624445402

>  <RootName>  (1) 
./4ZLY/04_DeltaGEst/trajectory_02/rank_01/lead_0356

$$$$
