confid_18
     RDKit          3D

 29 32  0  0  0  0  0  0  0  0999 V2000
   24.5500   26.3900   36.2500 N   0  0  0  0  0  0  0  0  0  0  0  0
   25.6000   26.1300   35.4000 C   0  0  0  0  0  0  0  0  0  0  0  0
   25.4300   25.4300   34.4200 O   0  0  0  0  0  0  0  0  0  0  0  0
   26.9800   26.6300   35.7100 C   0  0  0  0  0  0  0  0  0  0  0  0
   27.3200   26.8200   36.9800 N   0  0  0  0  0  0  0  0  0  0  0  0
   28.4700   27.4000   37.3100 N   0  0  0  0  0  0  0  0  0  0  0  0
   29.4000   27.6300   36.3700 C   0  0  0  0  0  0  0  0  0  0  0  0
   30.6600   28.0500   36.8000 C   0  0  0  0  0  0  0  0  0  0  0  0
   31.5700   28.3600   35.7800 C   0  0  0  0  0  0  0  0  0  0  0  0
   31.3700   28.1000   34.4300 C   0  0  0  0  0  0  0  0  0  0  0  0
   30.1200   27.5900   34.0500 C   0  0  0  0  0  0  0  0  0  0  0  0
   29.1500   27.3400   35.0300 C   0  0  0  0  0  0  0  0  0  0  0  0
   27.8800   26.8900   34.6600 C   0  0  0  0  0  0  0  0  0  0  0  0
   27.4800   26.6100   33.3700 N   0  0  0  0  0  0  0  0  0  0  0  0
   23.1646   25.9755   35.9636 C   0  0  2  0  0  0  0  0  0  0  0  0
   22.0845   26.8901   36.6146 C   0  0  0  0  0  0  0  0  0  0  0  0
   22.2057   27.2667   38.1086 C   0  0  0  0  0  0  0  0  0  0  0  0
   21.8034   26.1379   38.9817 N   0  0  0  0  0  0  0  0  0  0  0  0
   22.8468   25.8159   39.9781 C   0  0  0  0  0  0  0  0  0  0  0  0
   24.0917   25.2674   39.3308 C   0  0  0  0  0  0  0  0  0  0  0  0
   24.1430   24.3725   38.3174 N   0  0  0  0  0  0  0  0  0  0  0  0
   25.4010   24.0089   38.1089 N   0  0  0  0  0  0  0  0  0  0  0  0
   26.1753   24.6611   38.9986 C   0  0  0  0  0  0  0  0  0  0  0  0
   25.3767   25.4600   39.7871 C   0  0  0  0  0  0  0  0  0  0  0  0
   25.7732   26.2346   40.8264 F   0  0  0  0  0  0  0  0  0  0  0  0
   23.0254   23.8391   37.5412 C   0  0  0  0  0  0  0  0  0  0  0  0
   22.9482   24.4452   36.1304 C   0  0  0  0  0  0  0  0  0  0  0  0
   20.5125   26.3850   39.6652 C   0  0  0  0  0  0  0  0  0  0  0  0
   19.3408   26.3075   38.6875 C   0  0  0  0  0  0  0  0  0  0  0  0
  1  2  1  0
  2  3  2  0
  2  4  1  0
  4  5  2  0
  5  6  1  0
  6  7  2  0
  7  8  1  0
  8  9  2  0
  9 10  1  0
 10 11  2  0
 11 12  1  0
 12 13  2  0
 13 14  1  0
 15  1  1  1
 15 16  1  0
 16 17  1  0
 17 18  1  0
 18 19  1  0
 19 20  1  0
 20 21  1  0
 21 22  1  0
 22 23  2  0
 23 24  1  0
 24 25  1  0
 21 26  1  0
 26 27  1  0
 18 28  1  0
 28 29  1  0
 13  4  1  0
 27 15  1  0
 12  7  1  0
 24 20  2  0
M  END
>  <AAScore>  (1) 
702.8182031235943

>  <RootName>  (1) 
./4ZLY/04_DeltaGEst/trajectory_01/rank_00/lead_0103

$$$$
