confid_8
     RDKit          3D

 28 31  0  0  0  0  0  0  0  0999 V2000
   24.4800   26.1000   36.1300 N   0  0  0  0  0  0  0  0  0  0  0  0
   25.2500   26.2500   34.9900 C   0  0  0  0  0  0  0  0  0  0  0  0
   24.7400   25.7600   33.9900 O   0  0  0  0  0  0  0  0  0  0  0  0
   26.5900   26.8900   34.9600 C   0  0  0  0  0  0  0  0  0  0  0  0
   27.0600   27.2400   36.1600 N   0  0  0  0  0  0  0  0  0  0  0  0
   28.3000   27.7100   36.2400 N   0  0  0  0  0  0  0  0  0  0  0  0
   29.0500   27.9600   35.1500 C   0  0  0  0  0  0  0  0  0  0  0  0
   30.3400   28.4900   35.2600 C   0  0  0  0  0  0  0  0  0  0  0  0
   31.1100   28.8200   34.1400 C   0  0  0  0  0  0  0  0  0  0  0  0
   30.5200   28.6700   32.8800 C   0  0  0  0  0  0  0  0  0  0  0  0
   29.2900   28.0200   32.7700 C   0  0  0  0  0  0  0  0  0  0  0  0
   28.5200   27.7100   33.8900 C   0  0  0  0  0  0  0  0  0  0  0  0
   27.2700   27.0800   33.7600 C   0  0  0  0  0  0  0  0  0  0  0  0
   26.7500   26.8800   32.4900 N   0  0  0  0  0  0  0  0  0  0  0  0
   23.4803   25.0794   36.3314 C   0  0  0  0  0  0  0  0  0  0  0  0
   23.4334   23.9897   35.5229 N   0  0  0  0  0  0  0  0  0  0  0  0
   22.5235   22.9997   35.6939 C   0  0  0  0  0  0  0  0  0  0  0  0
   21.5836   23.0535   36.7397 C   0  0  0  0  0  0  0  0  0  0  0  0
   20.5794   21.9214   36.8268 C   0  0  0  0  0  0  0  0  0  0  0  0
   19.1717   22.3464   36.3925 C   0  0  0  0  0  0  0  0  0  0  0  0
   18.7198   23.5828   37.0628 N   0  0  0  0  0  0  0  0  0  0  0  0
   17.4767   24.0563   36.4310 C   0  0  0  0  0  0  0  0  0  0  0  0
   18.5086   23.3793   38.5130 C   0  0  0  0  0  0  0  0  0  0  0  0
   19.8160   23.5246   39.3089 C   0  0  0  0  0  0  0  0  0  0  0  0
   20.7314   24.4238   38.6876 O   0  0  0  0  0  0  0  0  0  0  0  0
   21.6103   24.1862   37.6098 C   0  0  0  0  0  0  0  0  0  0  0  0
   22.5692   25.1854   37.3889 C   0  0  0  0  0  0  0  0  0  0  0  0
   22.6021   26.2697   38.2065 F   0  0  0  0  0  0  0  0  0  0  0  0
  1  2  1  0
  2  3  2  0
  2  4  1  0
  4  5  2  0
  5  6  1  0
  6  7  2  0
  7  8  1  0
  8  9  2  0
  9 10  1  0
 10 11  2  0
 11 12  1  0
 12 13  2  0
 13 14  1  0
  1 15  1  0
 15 16  2  0
 16 17  1  0
 17 18  2  0
 18 19  1  0
 19 20  1  0
 20 21  1  0
 21 22  1  0
 21 23  1  0
 23 24  1  0
 24 25  1  0
 25 26  1  0
 26 27  2  0
 27 28  1  0
 13  4  1  0
 27 15  1  0
 12  7  1  0
 26 18  1  0
M  END
>  <AAScore>  (1) 
373.93372355611103

>  <RootName>  (1) 
./4ZLY/04_DeltaGEst/trajectory_00/rank_00/lead_0101

$$$$
