confid_6
     RDKit          3D

 31 34  0  0  0  0  0  0  0  0999 V2000
   24.2000   26.2400   35.6900 N   0  0  0  0  0  0  0  0  0  0  0  0
   24.8500   26.2800   34.4800 C   0  0  0  0  0  0  0  0  0  0  0  0
   24.3100   25.7400   33.5400 O   0  0  0  0  0  0  0  0  0  0  0  0
   26.1800   26.9700   34.4700 C   0  0  0  0  0  0  0  0  0  0  0  0
   26.6500   27.6000   35.5500 N   0  0  0  0  0  0  0  0  0  0  0  0
   27.7900   28.2700   35.6200 N   0  0  0  0  0  0  0  0  0  0  0  0
   28.5400   28.3000   34.5100 C   0  0  0  0  0  0  0  0  0  0  0  0
   29.7700   28.9400   34.5600 C   0  0  0  0  0  0  0  0  0  0  0  0
   30.7000   28.8900   33.5000 C   0  0  0  0  0  0  0  0  0  0  0  0
   30.3700   28.1400   32.3700 C   0  0  0  0  0  0  0  0  0  0  0  0
   29.1200   27.5200   32.2800 C   0  0  0  0  0  0  0  0  0  0  0  0
   28.2100   27.6100   33.3300 C   0  0  0  0  0  0  0  0  0  0  0  0
   26.9700   26.9700   33.3100 C   0  0  0  0  0  0  0  0  0  0  0  0
   26.5300   26.2400   32.2200 N   0  0  0  0  0  0  0  0  0  0  0  0
   22.7906   26.0061   35.9224 C   0  0  0  0  0  0  0  0  0  0  0  0
   22.3274   25.9680   37.1305 N   0  0  0  0  0  0  0  0  0  0  0  0
   20.9228   25.7802   37.0646 C   0  0  0  0  0  0  0  0  0  0  0  0
   20.5038   25.7082   35.8118 C   0  0  0  0  0  0  0  0  0  0  0  0
   19.1497   25.1907   35.4226 C   0  0  0  0  0  0  0  0  0  0  0  0
   19.1492   24.6098   34.0579 N   0  0  0  0  0  0  0  0  0  0  0  0
   17.7514   24.4923   33.5886 C   0  0  0  0  0  0  0  0  0  0  0  0
   19.9747   23.3576   33.8912 C   0  0  0  0  0  0  0  0  0  0  0  0
   19.3824   22.1417   34.6505 C   0  0  0  0  0  0  0  0  0  0  0  0
   21.4351   23.5877   34.3903 C   0  0  0  0  0  0  0  0  0  0  0  0
   21.9137   24.8505   33.9577 O   0  0  0  0  0  0  0  0  0  0  0  0
   21.6863   25.9117   34.8852 C   0  0  2  0  0  0  0  0  0  0  0  0
   21.5349   27.2580   34.1381 C   0  0  0  0  0  0  0  0  0  0  0  0
   20.3940   27.2151   33.2076 N   0  0  0  0  0  0  0  0  0  0  0  0
   20.8355   27.0413   31.8185 C   0  0  0  0  0  0  0  0  0  0  0  0
   19.6284   26.8529   30.9069 C   0  0  0  0  0  0  0  0  0  0  0  0
   20.0702   22.9879   32.3869 C   0  0  0  0  0  0  0  0  0  0  0  0
  1  2  1  0
  2  3  2  0
  2  4  1  0
  4  5  2  0
  5  6  1  0
  6  7  2  0
  7  8  1  0
  8  9  2  0
  9 10  1  0
 10 11  2  0
 11 12  1  0
 12 13  2  0
 13 14  1  0
  1 15  1  0
 15 16  2  0
 16 17  1  0
 17 18  2  0
 18 19  1  0
 19 20  1  0
 20 21  1  0
 20 22  1  0
 22 23  1  0
 22 24  1  0
 24 25  1  0
 25 26  1  0
 26 27  1  6
 27 28  1  0
 28 29  1  0
 29 30  1  0
 22 31  1  0
 13  4  1  0
 26 15  1  0
 12  7  1  0
 26 18  1  0
M  END
>  <AAScore>  (1) 
7457.365639959466

>  <RootName>  (1) 
./4ZLY/04_DeltaGEst/trajectory_04/rank_00/lead_0171

$$$$
