confid_9
     RDKit          3D

 28 32  0  0  0  0  0  0  0  0999 V2000
   24.6900   26.1200   35.5300 N   0  0  0  0  0  0  0  0  0  0  0  0
   25.6600   25.6700   34.6600 C   0  0  0  0  0  0  0  0  0  0  0  0
   25.2400   25.0100   33.7200 O   0  0  0  0  0  0  0  0  0  0  0  0
   27.0300   26.2200   34.8800 C   0  0  0  0  0  0  0  0  0  0  0  0
   27.3500   26.7300   36.0700 N   0  0  0  0  0  0  0  0  0  0  0  0
   28.5700   27.1800   36.3300 N   0  0  0  0  0  0  0  0  0  0  0  0
   29.5300   27.1100   35.3900 C   0  0  0  0  0  0  0  0  0  0  0  0
   30.8300   27.5700   35.6500 C   0  0  0  0  0  0  0  0  0  0  0  0
   31.8500   27.5400   34.6900 C   0  0  0  0  0  0  0  0  0  0  0  0
   31.5100   27.1200   33.4000 C   0  0  0  0  0  0  0  0  0  0  0  0
   30.2200   26.6300   33.1100 C   0  0  0  0  0  0  0  0  0  0  0  0
   29.2400   26.6600   34.1000 C   0  0  0  0  0  0  0  0  0  0  0  0
   27.9300   26.2600   33.8100 C   0  0  0  0  0  0  0  0  0  0  0  0
   27.5200   25.7100   32.6100 N   0  0  0  0  0  0  0  0  0  0  0  0
   23.2696   26.0306   35.3066 C   0  0  0  0  0  0  0  0  0  0  0  0
   22.4523   25.7500   36.3690 N   0  0  0  0  0  0  0  0  0  0  0  0
   21.0970   25.6531   36.2455 C   0  0  0  0  0  0  0  0  0  0  0  0
   20.5241   25.8537   34.9938 C   0  0  0  0  0  0  0  0  0  0  0  0
   19.0877   25.7400   34.5986 C   0  0  0  0  0  0  0  0  0  0  0  0
   19.2066   26.0151   33.1306 C   0  0  0  0  0  0  0  0  0  0  0  0
   18.2344   25.9848   32.3317 O   0  0  0  0  0  0  0  0  0  0  0  0
   20.5461   26.3012   32.7220 N   0  0  0  0  0  0  0  0  0  0  0  0
   21.3149   26.1673   33.9118 C   0  0  0  0  0  0  0  0  0  0  0  0
   22.7013   26.2752   34.0367 C   0  0  0  0  0  0  0  0  0  0  0  0
   21.0519   26.2112   31.3523 C   0  0  0  0  0  0  0  0  0  0  0  0
   21.5535   24.7874   31.0703 C   0  0  0  0  0  0  0  0  0  0  0  0
   21.5036   24.3461   29.6153 C   0  0  0  0  0  0  0  0  0  0  0  0
   20.4820   23.8079   30.6093 C   0  0  0  0  0  0  0  0  0  0  0  0
  1  2  1  0
  2  3  2  0
  2  4  1  0
  4  5  2  0
  5  6  1  0
  6  7  2  0
  7  8  1  0
  8  9  2  0
  9 10  1  0
 10 11  2  0
 11 12  1  0
 12 13  2  0
 13 14  1  0
  1 15  1  0
 15 16  2  0
 16 17  1  0
 17 18  2  0
 18 19  1  0
 19 20  1  0
 20 21  2  0
 20 22  1  0
 22 23  1  0
 23 24  2  0
 22 25  1  0
 25 26  1  0
 26 27  1  0
 27 28  1  0
 13  4  1  0
 24 15  1  0
 28 26  1  0
 12  7  1  0
 23 18  1  0
M  END
>  <AAScore>  (1) 
1397.1707529217165

>  <RootName>  (1) 
./4ZLY/04_DeltaGEst/trajectory_02/rank_00/lead_0424

$$$$
