confid_15
     RDKit          3D

 29 32  0  0  0  0  0  0  0  0999 V2000
   24.2000   26.2400   35.6900 N   0  0  0  0  0  0  0  0  0  0  0  0
   24.8500   26.2800   34.4800 C   0  0  0  0  0  0  0  0  0  0  0  0
   24.3100   25.7400   33.5400 O   0  0  0  0  0  0  0  0  0  0  0  0
   26.1800   26.9700   34.4700 C   0  0  0  0  0  0  0  0  0  0  0  0
   26.6500   27.6000   35.5500 N   0  0  0  0  0  0  0  0  0  0  0  0
   27.7900   28.2700   35.6200 N   0  0  0  0  0  0  0  0  0  0  0  0
   28.5400   28.3000   34.5100 C   0  0  0  0  0  0  0  0  0  0  0  0
   29.7700   28.9400   34.5600 C   0  0  0  0  0  0  0  0  0  0  0  0
   30.7000   28.8900   33.5000 C   0  0  0  0  0  0  0  0  0  0  0  0
   30.3700   28.1400   32.3700 C   0  0  0  0  0  0  0  0  0  0  0  0
   29.1200   27.5200   32.2800 C   0  0  0  0  0  0  0  0  0  0  0  0
   28.2100   27.6100   33.3300 C   0  0  0  0  0  0  0  0  0  0  0  0
   26.9700   26.9700   33.3100 C   0  0  0  0  0  0  0  0  0  0  0  0
   26.5300   26.2400   32.2200 N   0  0  0  0  0  0  0  0  0  0  0  0
   30.1123   29.7300   35.7101 N   0  0  0  0  0  0  0  0  0  0  0  0
   31.2266   29.3330   36.5731 C   0  0  0  0  0  0  0  0  0  0  0  0
   32.2564   30.4628   36.6224 C   0  0  0  0  0  0  0  0  0  0  0  0
   31.6198   31.7605   36.9058 N   0  0  0  0  0  0  0  0  0  0  0  0
   32.4246   32.8511   37.4050 C   0  0  0  0  0  0  0  0  0  0  0  0
   31.9425   33.6342   38.2696 O   0  0  0  0  0  0  0  0  0  0  0  0
   33.8198   33.0540   36.9568 C   0  0  0  0  0  0  0  0  0  0  0  0
   34.1735   32.8853   35.6071 C   0  0  0  0  0  0  0  0  0  0  0  0
   35.4971   33.0635   35.1968 C   0  0  0  0  0  0  0  0  0  0  0  0
   36.4720   33.4378   36.1230 C   0  0  0  0  0  0  0  0  0  0  0  0
   36.1287   33.6426   37.4702 C   0  0  0  0  0  0  0  0  0  0  0  0
   37.1601   34.1362   38.4440 C   0  0  0  0  0  0  0  0  0  0  0  0
   34.7966   33.4759   37.8761 C   0  0  0  0  0  0  0  0  0  0  0  0
   30.1536   31.8630   36.9875 C   0  0  0  0  0  0  0  0  0  0  0  0
   29.4833   31.0477   35.8717 C   0  0  0  0  0  0  0  0  0  0  0  0
  1  2  1  0
  2  3  2  0
  2  4  1  0
  4  5  2  0
  5  6  1  0
  6  7  2  0
  7  8  1  0
  8  9  2  0
  9 10  1  0
 10 11  2  0
 11 12  1  0
 12 13  2  0
 13 14  1  0
  8 15  1  0
 15 16  1  0
 16 17  1  0
 17 18  1  0
 18 19  1  0
 19 20  2  0
 19 21  1  0
 21 22  2  0
 22 23  1  0
 23 24  2  0
 24 25  1  0
 25 26  1  0
 25 27  2  0
 18 28  1  0
 28 29  1  0
 13  4  1  0
 29 15  1  0
 12  7  1  0
 27 21  1  0
M  END
>  <AAScore>  (1) 
-7.892140824242869

>  <RootName>  (1) 
./4ZLY/04_DeltaGEst/trajectory_04/rank_01/lead_0263

$$$$
