confid_12
     RDKit          3D

 28 32  0  0  0  0  0  0  0  0999 V2000
   24.5500   26.3900   36.2500 N   0  0  0  0  0  0  0  0  0  0  0  0
   25.6000   26.1300   35.4000 C   0  0  0  0  0  0  0  0  0  0  0  0
   25.4300   25.4300   34.4200 O   0  0  0  0  0  0  0  0  0  0  0  0
   26.9800   26.6300   35.7100 C   0  0  0  0  0  0  0  0  0  0  0  0
   27.3200   26.8200   36.9800 N   0  0  0  0  0  0  0  0  0  0  0  0
   28.4700   27.4000   37.3100 N   0  0  0  0  0  0  0  0  0  0  0  0
   29.4000   27.6300   36.3700 C   0  0  0  0  0  0  0  0  0  0  0  0
   30.6600   28.0500   36.8000 C   0  0  0  0  0  0  0  0  0  0  0  0
   31.5700   28.3600   35.7800 C   0  0  0  0  0  0  0  0  0  0  0  0
   31.3700   28.1000   34.4300 C   0  0  0  0  0  0  0  0  0  0  0  0
   30.1200   27.5900   34.0500 C   0  0  0  0  0  0  0  0  0  0  0  0
   29.1500   27.3400   35.0300 C   0  0  0  0  0  0  0  0  0  0  0  0
   27.8800   26.8900   34.6600 C   0  0  0  0  0  0  0  0  0  0  0  0
   27.4800   26.6100   33.3700 N   0  0  0  0  0  0  0  0  0  0  0  0
   23.1852   25.9927   36.0284 C   0  0  0  0  0  0  0  0  0  0  0  0
   22.7994   25.6110   34.8493 N   0  0  0  0  0  0  0  0  0  0  0  0
   21.4836   25.1738   34.5185 C   0  0  0  0  0  0  0  0  0  0  0  0
   21.1034   23.9478   34.8509 C   0  0  0  0  0  0  0  0  0  0  0  0
   21.6342   22.7912   35.6865 C   0  0  1  0  0  0  0  0  0  0  0  0
   21.3730   22.9407   37.1971 C   0  0  0  0  0  0  0  0  0  0  0  0
   22.2161   23.9558   37.8498 N   0  0  0  0  0  0  0  0  0  0  0  0
   22.6673   23.7010   39.2166 C   0  0  0  0  0  0  0  0  0  0  0  0
   21.8459   24.6356   40.1201 C   0  0  0  0  0  0  0  0  0  0  0  0
   21.2372   25.6931   39.1964 C   0  0  0  0  0  0  0  0  0  0  0  0
   21.7679   25.3068   37.8704 C   0  0  0  0  0  0  0  0  0  0  0  0
   22.2374   26.2199   37.0758 N   0  0  0  0  0  0  0  0  0  0  0  0
   20.6787   21.8013   35.0740 C   0  0  0  0  0  0  0  0  0  0  0  0
   20.0744   22.9574   34.3449 C   0  0  0  0  0  0  0  0  0  0  0  0
  1  2  1  0
  2  3  2  0
  2  4  1  0
  4  5  2  0
  5  6  1  0
  6  7  2  0
  7  8  1  0
  8  9  2  0
  9 10  1  0
 10 11  2  0
 11 12  1  0
 12 13  2  0
 13 14  1  0
  1 15  1  0
 15 16  2  0
 16 17  1  0
 17 18  2  0
 18 19  1  0
 19 20  1  1
 20 21  1  0
 21 22  1  0
 22 23  1  0
 23 24  1  0
 24 25  1  0
 25 26  2  0
 19 27  1  0
 27 28  1  0
 13  4  1  0
 26 15  1  0
 12  7  1  0
 28 18  1  0
 25 21  1  0
M  END
>  <AAScore>  (1) 
3383.994283811224

>  <RootName>  (1) 
./4ZLY/04_DeltaGEst/trajectory_01/rank_00/lead_0284

$$$$
