confid_9
     RDKit          3D

 28 31  0  0  0  0  0  0  0  0999 V2000
   25.3300   26.2600   34.7600 N   0  0  0  0  0  0  0  0  0  0  0  0
   26.1200   25.9200   33.6900 C   0  0  0  0  0  0  0  0  0  0  0  0
   25.6300   25.1100   32.9400 O   0  0  0  0  0  0  0  0  0  0  0  0
   27.5200   26.3800   33.4600 C   0  0  0  0  0  0  0  0  0  0  0  0
   28.1600   26.6300   34.6100 N   0  0  0  0  0  0  0  0  0  0  0  0
   29.4800   26.8500   34.5700 N   0  0  0  0  0  0  0  0  0  0  0  0
   30.1900   26.7800   33.4400 C   0  0  0  0  0  0  0  0  0  0  0  0
   31.5600   27.0500   33.5000 C   0  0  0  0  0  0  0  0  0  0  0  0
   32.2700   27.2400   32.3100 C   0  0  0  0  0  0  0  0  0  0  0  0
   31.6100   27.2500   31.0800 C   0  0  0  0  0  0  0  0  0  0  0  0
   30.2700   26.8700   31.0600 C   0  0  0  0  0  0  0  0  0  0  0  0
   29.5100   26.6900   32.2300 C   0  0  0  0  0  0  0  0  0  0  0  0
   28.1400   26.4100   32.2000 C   0  0  0  0  0  0  0  0  0  0  0  0
   27.4300   26.1300   31.0500 N   0  0  0  0  0  0  0  0  0  0  0  0
   26.4056   27.0829   30.5946 C   0  0  0  0  0  0  0  0  0  0  0  0
   26.1491   26.9863   29.0961 C   0  0  0  0  0  0  0  0  0  0  0  0
   27.4182   26.9902   28.3704 N   0  0  0  0  0  0  0  0  0  0  0  0
   28.0083   28.2647   27.9491 C   0  0  0  0  0  0  0  0  0  0  0  0
   28.0838   25.7417   28.0908 C   0  0  0  0  0  0  0  0  0  0  0  0
   28.6714   25.5459   26.8261 C   0  0  0  0  0  0  0  0  0  0  0  0
   29.2667   24.3199   26.4855 C   0  0  0  0  0  0  0  0  0  0  0  0
   29.8592   24.0907   25.2343 O   0  0  0  0  0  0  0  0  0  0  0  0
   29.9336   25.0547   24.1889 C   0  0  0  0  0  0  0  0  0  0  0  0
   29.2692   23.2838   27.4172 C   0  0  0  0  0  0  0  0  0  0  0  0
   28.6998   23.4607   28.6770 C   0  0  0  0  0  0  0  0  0  0  0  0
   28.1099   24.6861   29.0422 C   0  0  0  0  0  0  0  0  0  0  0  0
   27.6045   24.8379   30.4381 C   0  0  0  0  0  0  0  0  0  0  0  0
   27.4155   23.8063   31.1396 O   0  0  0  0  0  0  0  0  0  0  0  0
  1  2  1  0
  2  3  2  0
  2  4  1  0
  4  5  2  0
  5  6  1  0
  6  7  2  0
  7  8  1  0
  8  9  2  0
  9 10  1  0
 10 11  2  0
 11 12  1  0
 12 13  2  0
 13 14  1  0
 14 15  1  0
 15 16  1  0
 16 17  1  0
 17 18  1  0
 17 19  1  0
 19 20  2  0
 20 21  1  0
 21 22  1  0
 22 23  1  0
 21 24  2  0
 24 25  1  0
 25 26  2  0
 26 27  1  0
 27 28  2  0
 13  4  1  0
 27 14  1  0
 12  7  1  0
 26 19  1  0
M  END
>  <AAScore>  (1) 
2.632746541617863

>  <RootName>  (1) 
./4ZLY/04_DeltaGEst/trajectory_03/rank_01/lead_0121

$$$$
