confid_3
     RDKit          3D

 26 29  0  0  0  0  0  0  0  0999 V2000
   24.5500   26.3900   36.2500 N   0  0  0  0  0  0  0  0  0  0  0  0
   25.6000   26.1300   35.4000 C   0  0  0  0  0  0  0  0  0  0  0  0
   25.4300   25.4300   34.4200 O   0  0  0  0  0  0  0  0  0  0  0  0
   26.9800   26.6300   35.7100 C   0  0  0  0  0  0  0  0  0  0  0  0
   27.3200   26.8200   36.9800 N   0  0  0  0  0  0  0  0  0  0  0  0
   28.4700   27.4000   37.3100 N   0  0  0  0  0  0  0  0  0  0  0  0
   29.4000   27.6300   36.3700 C   0  0  0  0  0  0  0  0  0  0  0  0
   30.6600   28.0500   36.8000 C   0  0  0  0  0  0  0  0  0  0  0  0
   31.5700   28.3600   35.7800 C   0  0  0  0  0  0  0  0  0  0  0  0
   31.3700   28.1000   34.4300 C   0  0  0  0  0  0  0  0  0  0  0  0
   30.1200   27.5900   34.0500 C   0  0  0  0  0  0  0  0  0  0  0  0
   29.1500   27.3400   35.0300 C   0  0  0  0  0  0  0  0  0  0  0  0
   27.8800   26.8900   34.6600 C   0  0  0  0  0  0  0  0  0  0  0  0
   27.4800   26.6100   33.3700 N   0  0  0  0  0  0  0  0  0  0  0  0
   30.9650   28.2810   38.1860 N   0  0  0  0  0  0  0  0  0  0  0  0
   31.1628   27.1318   39.0743 C   0  0  0  0  0  0  0  0  0  0  0  0
   30.7165   27.4625   40.5027 C   0  0  0  0  0  0  0  0  0  0  0  0
   31.3483   28.7451   41.0043 C   0  0  0  0  0  0  0  0  0  0  0  0
   31.5863   28.9533   42.3821 C   0  0  0  0  0  0  0  0  0  0  0  0
   32.1127   30.1718   42.8244 C   0  0  0  0  0  0  0  0  0  0  0  0
   32.3845   31.1951   41.9168 C   0  0  0  0  0  0  0  0  0  0  0  0
   32.1263   31.0135   40.5583 C   0  0  0  0  0  0  0  0  0  0  0  0
   31.6035   29.7955   40.0935 C   0  0  0  0  0  0  0  0  0  0  0  0
   31.3137   29.5947   38.6578 C   0  0  0  0  0  0  0  0  0  0  0  0
   31.3460   30.5713   37.8591 O   0  0  0  0  0  0  0  0  0  0  0  0
   31.2194   27.7249   43.5895 Cl  0  0  0  0  0  0  0  0  0  0  0  0
  1  2  1  0
  2  3  2  0
  2  4  1  0
  4  5  2  0
  5  6  1  0
  6  7  2  0
  7  8  1  0
  8  9  2  0
  9 10  1  0
 10 11  2  0
 11 12  1  0
 12 13  2  0
 13 14  1  0
  8 15  1  0
 15 16  1  0
 16 17  1  0
 17 18  1  0
 18 19  2  0
 19 20  1  0
 20 21  2  0
 21 22  1  0
 22 23  2  0
 23 24  1  0
 24 25  2  0
 19 26  1  0
 13  4  1  0
 24 15  1  0
 12  7  1  0
 23 18  1  0
M  END
>  <AAScore>  (1) 
253.53152531142345

>  <RootName>  (1) 
./4ZLY/04_DeltaGEst/trajectory_01/rank_01/lead_0450

$$$$
