confid_5
     RDKit          3D

 30 33  0  0  0  0  0  0  0  0999 V2000
   24.2000   26.2400   35.6900 N   0  0  0  0  0  0  0  0  0  0  0  0
   24.8500   26.2800   34.4800 C   0  0  0  0  0  0  0  0  0  0  0  0
   24.3100   25.7400   33.5400 O   0  0  0  0  0  0  0  0  0  0  0  0
   26.1800   26.9700   34.4700 C   0  0  0  0  0  0  0  0  0  0  0  0
   26.6500   27.6000   35.5500 N   0  0  0  0  0  0  0  0  0  0  0  0
   27.7900   28.2700   35.6200 N   0  0  0  0  0  0  0  0  0  0  0  0
   28.5400   28.3000   34.5100 C   0  0  0  0  0  0  0  0  0  0  0  0
   29.7700   28.9400   34.5600 C   0  0  0  0  0  0  0  0  0  0  0  0
   30.7000   28.8900   33.5000 C   0  0  0  0  0  0  0  0  0  0  0  0
   30.3700   28.1400   32.3700 C   0  0  0  0  0  0  0  0  0  0  0  0
   29.1200   27.5200   32.2800 C   0  0  0  0  0  0  0  0  0  0  0  0
   28.2100   27.6100   33.3300 C   0  0  0  0  0  0  0  0  0  0  0  0
   26.9700   26.9700   33.3100 C   0  0  0  0  0  0  0  0  0  0  0  0
   26.5300   26.2400   32.2200 N   0  0  0  0  0  0  0  0  0  0  0  0
   30.1374   29.6812   35.7349 N   0  0  0  0  0  0  0  0  0  0  0  0
   31.2273   29.2030   36.5919 C   0  0  0  0  0  0  0  0  0  0  0  0
   32.2606   30.3166   36.7838 C   0  0  0  0  0  0  0  0  0  0  0  0
   31.6159   31.6078   37.0780 N   0  0  0  0  0  0  0  0  0  0  0  0
   32.4308   32.7521   37.3891 C   0  0  0  0  0  0  0  0  0  0  0  0
   32.0217   33.6127   38.2150 O   0  0  0  0  0  0  0  0  0  0  0  0
   33.7446   32.9448   36.7395 C   0  0  0  0  0  0  0  0  0  0  0  0
   33.8362   33.1241   35.3358 C   0  0  0  0  0  0  0  0  0  0  0  0
   32.6096   33.1533   34.4586 C   0  0  0  0  0  0  0  0  0  0  0  0
   35.1008   33.2601   34.7403 C   0  0  0  0  0  0  0  0  0  0  0  0
   36.2568   33.2551   35.5211 C   0  0  0  0  0  0  0  0  0  0  0  0
   36.1674   33.1062   36.9043 C   0  0  0  0  0  0  0  0  0  0  0  0
   34.9211   32.9503   37.5188 C   0  0  0  0  0  0  0  0  0  0  0  0
   34.8736   32.7192   39.2643 Cl  0  0  0  0  0  0  0  0  0  0  0  0
   30.1531   31.6979   37.1793 C   0  0  0  0  0  0  0  0  0  0  0  0
   29.5030   30.9817   35.9906 C   0  0  0  0  0  0  0  0  0  0  0  0
  1  2  1  0
  2  3  2  0
  2  4  1  0
  4  5  2  0
  5  6  1  0
  6  7  2  0
  7  8  1  0
  8  9  2  0
  9 10  1  0
 10 11  2  0
 11 12  1  0
 12 13  2  0
 13 14  1  0
  8 15  1  0
 15 16  1  0
 16 17  1  0
 17 18  1  0
 18 19  1  0
 19 20  2  0
 19 21  1  0
 21 22  2  0
 22 23  1  0
 22 24  1  0
 24 25  2  0
 25 26  1  0
 26 27  2  0
 27 28  1  0
 18 29  1  0
 29 30  1  0
 13  4  1  0
 30 15  1  0
 12  7  1  0
 27 21  1  0
M  END
>  <AAScore>  (1) 
-7.737176626532771

>  <RootName>  (1) 
./4ZLY/04_DeltaGEst/trajectory_04/rank_01/lead_0235

$$$$
