confid_8
     RDKit          3D

 25 27  0  0  0  0  0  0  0  0999 V2000
   25.3300   26.2600   34.7600 N   0  0  0  0  0  0  0  0  0  0  0  0
   26.1200   25.9200   33.6900 C   0  0  0  0  0  0  0  0  0  0  0  0
   25.6300   25.1100   32.9400 O   0  0  0  0  0  0  0  0  0  0  0  0
   27.5200   26.3800   33.4600 C   0  0  0  0  0  0  0  0  0  0  0  0
   28.1600   26.6300   34.6100 N   0  0  0  0  0  0  0  0  0  0  0  0
   29.4800   26.8500   34.5700 N   0  0  0  0  0  0  0  0  0  0  0  0
   30.1900   26.7800   33.4400 C   0  0  0  0  0  0  0  0  0  0  0  0
   31.5600   27.0500   33.5000 C   0  0  0  0  0  0  0  0  0  0  0  0
   32.2700   27.2400   32.3100 C   0  0  0  0  0  0  0  0  0  0  0  0
   31.6100   27.2500   31.0800 C   0  0  0  0  0  0  0  0  0  0  0  0
   30.2700   26.8700   31.0600 C   0  0  0  0  0  0  0  0  0  0  0  0
   29.5100   26.6900   32.2300 C   0  0  0  0  0  0  0  0  0  0  0  0
   28.1400   26.4100   32.2000 C   0  0  0  0  0  0  0  0  0  0  0  0
   27.4300   26.1300   31.0500 N   0  0  0  0  0  0  0  0  0  0  0  0
   23.9334   25.8242   34.9291 C   0  0  2  0  0  0  0  0  0  0  0  0
   23.0292   26.5711   33.9165 C   0  0  0  0  0  0  0  0  0  0  0  0
   21.5839   26.6804   34.4141 C   0  0  0  0  0  0  0  0  0  0  0  0
   21.4893   27.4865   35.7439 C   0  0  2  0  0  0  0  0  0  0  0  0
   22.7814   27.3792   36.5901 C   0  0  0  0  0  0  0  0  0  0  0  0
   23.4734   26.0262   36.3960 C   0  0  0  0  0  0  0  0  0  0  0  0
   20.3453   27.0541   36.5697 N   0  0  0  0  0  0  0  0  0  0  0  0
   18.8776   27.9095   36.1852 S   0  0  0  0  0  6  0  0  0  0  0  0
   19.1006   29.3914   36.3100 O   0  0  0  0  0  0  0  0  0  0  0  0
   17.8137   27.4961   37.1624 O   0  0  0  0  0  0  0  0  0  0  0  0
   18.3101   27.5289   34.5407 C   0  0  0  0  0  0  0  0  0  0  0  0
  1  2  1  0
  2  3  2  0
  2  4  1  0
  4  5  2  0
  5  6  1  0
  6  7  2  0
  7  8  1  0
  8  9  2  0
  9 10  1  0
 10 11  2  0
 11 12  1  0
 12 13  2  0
 13 14  1  0
 15  1  1  1
 15 16  1  0
 16 17  1  0
 17 18  1  0
 18 19  1  0
 19 20  1  0
 18 21  1  1
 21 22  1  0
 22 23  2  0
 22 24  2  0
 22 25  1  0
 13  4  1  0
 20 15  1  0
 12  7  1  0
M  END
>  <AAScore>  (1) 
78.02074377471207

>  <RootName>  (1) 
./4ZLY/04_DeltaGEst/trajectory_03/rank_00/lead_0114

$$$$
