confid_12
     RDKit          3D

 28 31  0  0  0  0  0  0  0  0999 V2000
   24.5500   26.3900   36.2500 N   0  0  0  0  0  0  0  0  0  0  0  0
   25.6000   26.1300   35.4000 C   0  0  0  0  0  0  0  0  0  0  0  0
   25.4300   25.4300   34.4200 O   0  0  0  0  0  0  0  0  0  0  0  0
   26.9800   26.6300   35.7100 C   0  0  0  0  0  0  0  0  0  0  0  0
   27.3200   26.8200   36.9800 N   0  0  0  0  0  0  0  0  0  0  0  0
   28.4700   27.4000   37.3100 N   0  0  0  0  0  0  0  0  0  0  0  0
   29.4000   27.6300   36.3700 C   0  0  0  0  0  0  0  0  0  0  0  0
   30.6600   28.0500   36.8000 C   0  0  0  0  0  0  0  0  0  0  0  0
   31.5700   28.3600   35.7800 C   0  0  0  0  0  0  0  0  0  0  0  0
   31.3700   28.1000   34.4300 C   0  0  0  0  0  0  0  0  0  0  0  0
   30.1200   27.5900   34.0500 C   0  0  0  0  0  0  0  0  0  0  0  0
   29.1500   27.3400   35.0300 C   0  0  0  0  0  0  0  0  0  0  0  0
   27.8800   26.8900   34.6600 C   0  0  0  0  0  0  0  0  0  0  0  0
   27.4800   26.6100   33.3700 N   0  0  0  0  0  0  0  0  0  0  0  0
   30.9928   28.2792   38.2269 C   0  0  0  0  0  0  0  0  0  0  0  0
   31.0713   27.1687   39.0825 C   0  0  0  0  0  0  0  0  0  0  0  0
   31.4015   27.3082   40.4514 C   0  0  0  0  0  0  0  0  0  0  0  0
   31.4786   26.1458   41.3384 N   0  0  0  0  0  0  0  0  0  0  0  0
   31.7414   26.3647   42.7783 C   0  0  0  0  0  0  0  0  0  0  0  0
   31.8742   25.0851   43.6161 C   0  0  0  0  0  0  0  0  0  0  0  0
   30.9884   24.0069   43.1654 N   0  0  0  0  0  0  0  0  0  0  0  0
   29.5611   24.3155   43.3595 C   0  0  0  0  0  0  0  0  0  0  0  0
   31.3136   23.6467   41.7817 C   0  0  0  0  0  0  0  0  0  0  0  0
   31.1356   24.8114   40.7977 C   0  0  0  0  0  0  0  0  0  0  0  0
   31.6464   28.6152   40.9308 C   0  0  0  0  0  0  0  0  0  0  0  0
   31.5625   29.7234   40.0871 C   0  0  0  0  0  0  0  0  0  0  0  0
   31.2211   29.5747   38.7380 C   0  0  0  0  0  0  0  0  0  0  0  0
   31.1252   30.7999   37.8664 C   0  0  0  0  0  0  0  0  0  0  0  0
  1  2  1  0
  2  3  2  0
  2  4  1  0
  4  5  2  0
  5  6  1  0
  6  7  2  0
  7  8  1  0
  8  9  2  0
  9 10  1  0
 10 11  2  0
 11 12  1  0
 12 13  2  0
 13 14  1  0
  8 15  1  0
 15 16  2  0
 16 17  1  0
 17 18  1  0
 18 19  1  0
 19 20  1  0
 20 21  1  0
 21 22  1  0
 21 23  1  0
 23 24  1  0
 17 25  2  0
 25 26  1  0
 26 27  2  0
 27 28  1  0
 13  4  1  0
 27 15  1  0
 12  7  1  0
 24 18  1  0
M  END
>  <AAScore>  (1) 
27.266695804871347

>  <RootName>  (1) 
./4ZLY/04_DeltaGEst/trajectory_01/rank_01/lead_0394

$$$$
