confid_6
     RDKit          3D

 27 30  0  0  0  0  0  0  0  0999 V2000
   24.2000   26.2400   35.6900 N   0  0  0  0  0  0  0  0  0  0  0  0
   24.8500   26.2800   34.4800 C   0  0  0  0  0  0  0  0  0  0  0  0
   24.3100   25.7400   33.5400 O   0  0  0  0  0  0  0  0  0  0  0  0
   26.1800   26.9700   34.4700 C   0  0  0  0  0  0  0  0  0  0  0  0
   26.6500   27.6000   35.5500 N   0  0  0  0  0  0  0  0  0  0  0  0
   27.7900   28.2700   35.6200 N   0  0  0  0  0  0  0  0  0  0  0  0
   28.5400   28.3000   34.5100 C   0  0  0  0  0  0  0  0  0  0  0  0
   29.7700   28.9400   34.5600 C   0  0  0  0  0  0  0  0  0  0  0  0
   30.7000   28.8900   33.5000 C   0  0  0  0  0  0  0  0  0  0  0  0
   30.3700   28.1400   32.3700 C   0  0  0  0  0  0  0  0  0  0  0  0
   29.1200   27.5200   32.2800 C   0  0  0  0  0  0  0  0  0  0  0  0
   28.2100   27.6100   33.3300 C   0  0  0  0  0  0  0  0  0  0  0  0
   26.9700   26.9700   33.3100 C   0  0  0  0  0  0  0  0  0  0  0  0
   26.5300   26.2400   32.2200 N   0  0  0  0  0  0  0  0  0  0  0  0
   22.7978   25.9687   35.8484 C   0  0  0  0  0  0  0  0  0  0  0  0
   21.9271   25.8406   34.8257 N   0  0  0  0  0  0  0  0  0  0  0  0
   20.7558   25.6344   35.4632 C   0  0  0  0  0  0  0  0  0  0  0  0
   19.4979   25.3030   34.6901 C   0  0  0  0  0  0  0  0  0  0  0  0
   18.2221   26.0116   35.1756 C   0  0  0  0  0  0  0  0  0  0  0  0
   17.2932   25.0175   35.7736 N   0  0  0  0  0  0  0  0  0  0  0  0
   16.9094   25.3227   37.1720 C   0  0  0  0  0  0  0  0  0  0  0  0
   17.6543   24.4033   38.1584 C   0  0  0  0  0  0  0  0  0  0  0  0
   19.1501   24.2092   37.8535 C   0  0  0  0  0  0  0  0  0  0  0  0
   19.9461   25.5256   37.8927 C   0  0  0  0  0  0  0  0  0  0  0  0
   20.9324   25.6129   36.8116 N   0  0  0  0  0  0  0  0  0  0  0  0
   22.2112   25.8449   37.0514 N   0  0  0  0  0  0  0  0  0  0  0  0
   16.1142   24.7970   34.9206 C   0  0  0  0  0  0  0  0  0  0  0  0
  1  2  1  0
  2  3  2  0
  2  4  1  0
  4  5  2  0
  5  6  1  0
  6  7  2  0
  7  8  1  0
  8  9  2  0
  9 10  1  0
 10 11  2  0
 11 12  1  0
 12 13  2  0
 13 14  1  0
  1 15  1  0
 15 16  1  0
 16 17  2  0
 17 18  1  0
 18 19  1  0
 19 20  1  0
 20 21  1  0
 21 22  1  0
 22 23  1  0
 23 24  1  0
 24 25  1  0
 25 26  1  0
 20 27  1  0
 13  4  1  0
 26 15  2  0
 12  7  1  0
 25 17  1  0
M  END
>  <AAScore>  (1) 
970.5832814539592

>  <RootName>  (1) 
./4ZLY/04_DeltaGEst/trajectory_04/rank_00/lead_0084

$$$$
