confid_13
     RDKit          3D

 26 29  0  0  0  0  0  0  0  0999 V2000
   24.2000   26.2400   35.6900 N   0  0  0  0  0  0  0  0  0  0  0  0
   24.8500   26.2800   34.4800 C   0  0  0  0  0  0  0  0  0  0  0  0
   24.3100   25.7400   33.5400 O   0  0  0  0  0  0  0  0  0  0  0  0
   26.1800   26.9700   34.4700 C   0  0  0  0  0  0  0  0  0  0  0  0
   26.6500   27.6000   35.5500 N   0  0  0  0  0  0  0  0  0  0  0  0
   27.7900   28.2700   35.6200 N   0  0  0  0  0  0  0  0  0  0  0  0
   28.5400   28.3000   34.5100 C   0  0  0  0  0  0  0  0  0  0  0  0
   29.7700   28.9400   34.5600 C   0  0  0  0  0  0  0  0  0  0  0  0
   30.7000   28.8900   33.5000 C   0  0  0  0  0  0  0  0  0  0  0  0
   30.3700   28.1400   32.3700 C   0  0  0  0  0  0  0  0  0  0  0  0
   29.1200   27.5200   32.2800 C   0  0  0  0  0  0  0  0  0  0  0  0
   28.2100   27.6100   33.3300 C   0  0  0  0  0  0  0  0  0  0  0  0
   26.9700   26.9700   33.3100 C   0  0  0  0  0  0  0  0  0  0  0  0
   26.5300   26.2400   32.2200 N   0  0  0  0  0  0  0  0  0  0  0  0
   30.1289   29.6743   35.7396 N   0  0  0  0  0  0  0  0  0  0  0  0
   31.1437   29.1292   36.6444 C   0  0  0  0  0  0  0  0  0  0  0  0
   30.7362   29.4042   38.0896 C   0  0  0  0  0  0  0  0  0  0  0  0
   30.3656   30.8461   38.2904 C   0  0  0  0  0  0  0  0  0  0  0  0
   30.4434   31.3732   39.5425 N   0  0  0  0  0  0  0  0  0  0  0  0
   30.0687   32.6503   39.8114 C   0  0  0  0  0  0  0  0  0  0  0  0
   29.5807   33.4672   38.7896 C   0  0  0  0  0  0  0  0  0  0  0  0
   29.1126   35.1232   39.1374 Cl  0  0  0  0  0  0  0  0  0  0  0  0
   29.4785   32.9552   37.4931 C   0  0  0  0  0  0  0  0  0  0  0  0
   29.0109   33.7453   36.4913 F   0  0  0  0  0  0  0  0  0  0  0  0
   29.8586   31.6295   37.2300 C   0  0  0  0  0  0  0  0  0  0  0  0
   29.7685   31.0939   35.8197 C   0  0  0  0  0  0  0  0  0  0  0  0
  1  2  1  0
  2  3  2  0
  2  4  1  0
  4  5  2  0
  5  6  1  0
  6  7  2  0
  7  8  1  0
  8  9  2  0
  9 10  1  0
 10 11  2  0
 11 12  1  0
 12 13  2  0
 13 14  1  0
  8 15  1  0
 15 16  1  0
 16 17  1  0
 17 18  1  0
 18 19  2  0
 19 20  1  0
 20 21  2  0
 21 22  1  0
 21 23  1  0
 23 24  1  0
 23 25  2  0
 25 26  1  0
 13  4  1  0
 26 15  1  0
 12  7  1  0
 25 18  1  0
M  END
>  <AAScore>  (1) 
-6.9196232744136745

>  <RootName>  (1) 
./4ZLY/04_DeltaGEst/trajectory_04/rank_01/lead_0014

$$$$
