confid_1
     RDKit          3D

 28 32  0  0  0  0  0  0  0  0999 V2000
   24.5500   26.3900   36.2500 N   0  0  0  0  0  0  0  0  0  0  0  0
   25.6000   26.1300   35.4000 C   0  0  0  0  0  0  0  0  0  0  0  0
   25.4300   25.4300   34.4200 O   0  0  0  0  0  0  0  0  0  0  0  0
   26.9800   26.6300   35.7100 C   0  0  0  0  0  0  0  0  0  0  0  0
   27.3200   26.8200   36.9800 N   0  0  0  0  0  0  0  0  0  0  0  0
   28.4700   27.4000   37.3100 N   0  0  0  0  0  0  0  0  0  0  0  0
   29.4000   27.6300   36.3700 C   0  0  0  0  0  0  0  0  0  0  0  0
   30.6600   28.0500   36.8000 C   0  0  0  0  0  0  0  0  0  0  0  0
   31.5700   28.3600   35.7800 C   0  0  0  0  0  0  0  0  0  0  0  0
   31.3700   28.1000   34.4300 C   0  0  0  0  0  0  0  0  0  0  0  0
   30.1200   27.5900   34.0500 C   0  0  0  0  0  0  0  0  0  0  0  0
   29.1500   27.3400   35.0300 C   0  0  0  0  0  0  0  0  0  0  0  0
   27.8800   26.8900   34.6600 C   0  0  0  0  0  0  0  0  0  0  0  0
   27.4800   26.6100   33.3700 N   0  0  0  0  0  0  0  0  0  0  0  0
   23.1595   26.1846   35.9260 C   0  0  0  0  0  0  0  0  0  0  0  0
   22.8298   26.0467   34.6671 N   0  0  0  0  0  0  0  0  0  0  0  0
   21.6188   25.8154   33.9271 C   0  0  0  0  0  0  0  0  0  0  0  0
   20.5773   25.1447   34.4008 C   0  0  0  0  0  0  0  0  0  0  0  0
   19.6111   24.1343   33.8495 C   0  0  0  0  0  0  0  0  0  0  0  0
   19.1667   23.6980   35.0940 O   0  0  0  0  0  0  0  0  0  0  0  0
   19.9306   24.7056   35.6715 C   0  0  1  0  0  0  0  0  0  0  0  0
   20.9557   24.2239   36.6916 C   0  0  0  0  0  0  0  0  0  0  0  0
   21.3363   25.4319   37.4914 C   0  0  0  0  0  0  0  0  0  0  0  0
   22.2035   26.3664   37.0464 C   0  0  0  0  0  0  0  0  0  0  0  0
   22.3172   27.5653   37.7656 O   0  0  0  0  0  0  0  0  0  0  0  0
   21.8309   27.7281   39.0987 C   0  0  0  0  0  0  0  0  0  0  0  0
   20.7061   26.7806   39.3805 C   0  0  0  0  0  0  0  0  0  0  0  0
   20.5341   25.7237   38.6476 N   0  0  0  0  0  0  0  0  0  0  0  0
  1  2  1  0
  2  3  2  0
  2  4  1  0
  4  5  2  0
  5  6  1  0
  6  7  2  0
  7  8  1  0
  8  9  2  0
  9 10  1  0
 10 11  2  0
 11 12  1  0
 12 13  2  0
 13 14  1  0
  1 15  1  0
 15 16  2  0
 16 17  1  0
 17 18  2  0
 18 19  1  0
 19 20  1  0
 20 21  1  0
 21 22  1  1
 22 23  1  0
 23 24  2  0
 24 25  1  0
 25 26  1  0
 26 27  1  0
 27 28  2  0
 13  4  1  0
 24 15  1  0
 12  7  1  0
 21 18  1  0
 28 23  1  0
M  END
>  <AAScore>  (1) 
1419.9113999300532

>  <RootName>  (1) 
./4ZLY/04_DeltaGEst/trajectory_01/rank_00/lead_0322

$$$$
