confid_6
     RDKit          3D

 32 36  0  0  0  0  0  0  0  0999 V2000
   25.3300   26.2600   34.7600 N   0  0  0  0  0  0  0  0  0  0  0  0
   26.1200   25.9200   33.6900 C   0  0  0  0  0  0  0  0  0  0  0  0
   25.6300   25.1100   32.9400 O   0  0  0  0  0  0  0  0  0  0  0  0
   27.5200   26.3800   33.4600 C   0  0  0  0  0  0  0  0  0  0  0  0
   28.1600   26.6300   34.6100 N   0  0  0  0  0  0  0  0  0  0  0  0
   29.4800   26.8500   34.5700 N   0  0  0  0  0  0  0  0  0  0  0  0
   30.1900   26.7800   33.4400 C   0  0  0  0  0  0  0  0  0  0  0  0
   31.5600   27.0500   33.5000 C   0  0  0  0  0  0  0  0  0  0  0  0
   32.2700   27.2400   32.3100 C   0  0  0  0  0  0  0  0  0  0  0  0
   31.6100   27.2500   31.0800 C   0  0  0  0  0  0  0  0  0  0  0  0
   30.2700   26.8700   31.0600 C   0  0  0  0  0  0  0  0  0  0  0  0
   29.5100   26.6900   32.2300 C   0  0  0  0  0  0  0  0  0  0  0  0
   28.1400   26.4100   32.2000 C   0  0  0  0  0  0  0  0  0  0  0  0
   27.4300   26.1300   31.0500 N   0  0  0  0  0  0  0  0  0  0  0  0
   27.6878   24.8664   30.3302 C   0  0  0  0  0  0  0  0  0  0  0  0
   26.4749   24.3903   29.5109 C   0  0  0  0  0  0  0  0  0  0  0  0
   26.1108   25.2812   28.3920 N   0  0  0  0  0  0  0  0  0  0  0  0
   24.8127   25.0494   27.7545 C   0  0  0  0  0  0  0  0  0  0  0  0
   26.8380   26.4914   28.0815 C   0  0  0  0  0  0  0  0  0  0  0  0
   27.4011   26.7087   26.7961 C   0  0  0  0  0  0  0  0  0  0  0  0
   27.4315   25.6340   25.7296 C   0  0  0  0  0  0  0  0  0  0  0  0
   27.0504   26.1932   24.4159 N   0  0  0  0  0  0  0  0  0  0  0  0
   25.5844   26.3752   24.3099 C   0  0  0  0  0  0  0  0  0  0  0  0
   25.1680   26.6780   22.8571 C   0  0  0  0  0  0  0  0  0  0  0  0
   26.2868   27.0879   22.0911 O   0  0  0  0  0  0  0  0  0  0  0  0
   27.2058   26.0114   21.9604 C   0  0  0  0  0  0  0  0  0  0  0  0
   27.5332   25.3412   23.3137 C   0  0  0  0  0  0  0  0  0  0  0  0
   28.0843   27.9122   26.5426 C   0  0  0  0  0  0  0  0  0  0  0  0
   28.2048   28.8864   27.5309 C   0  0  0  0  0  0  0  0  0  0  0  0
   27.6778   28.6638   28.8003 C   0  0  0  0  0  0  0  0  0  0  0  0
   26.9958   27.4730   29.0824 C   0  0  0  0  0  0  0  0  0  0  0  0
   26.5608   27.1728   30.4877 C   0  0  0  0  0  0  0  0  0  0  0  0
  1  2  1  0
  2  3  2  0
  2  4  1  0
  4  5  2  0
  5  6  1  0
  6  7  2  0
  7  8  1  0
  8  9  2  0
  9 10  1  0
 10 11  2  0
 11 12  1  0
 12 13  2  0
 13 14  1  0
 14 15  1  0
 15 16  1  0
 16 17  1  0
 17 18  1  0
 17 19  1  0
 19 20  2  0
 20 21  1  0
 21 22  1  0
 22 23  1  0
 23 24  1  0
 24 25  1  0
 25 26  1  0
 26 27  1  0
 20 28  1  0
 28 29  2  0
 29 30  1  0
 30 31  2  0
 31 32  1  0
 13  4  1  0
 32 14  1  0
 12  7  1  0
 31 19  1  0
 27 22  1  0
M  END
>  <AAScore>  (1) 
38.35813770296586

>  <RootName>  (1) 
./4ZLY/04_DeltaGEst/trajectory_03/rank_01/lead_0134

$$$$
