confid_5
     RDKit          3D

 28 31  0  0  0  0  0  0  0  0999 V2000
   24.4800   26.1000   36.1300 N   0  0  0  0  0  0  0  0  0  0  0  0
   25.2500   26.2500   34.9900 C   0  0  0  0  0  0  0  0  0  0  0  0
   24.7400   25.7600   33.9900 O   0  0  0  0  0  0  0  0  0  0  0  0
   26.5900   26.8900   34.9600 C   0  0  0  0  0  0  0  0  0  0  0  0
   27.0600   27.2400   36.1600 N   0  0  0  0  0  0  0  0  0  0  0  0
   28.3000   27.7100   36.2400 N   0  0  0  0  0  0  0  0  0  0  0  0
   29.0500   27.9600   35.1500 C   0  0  0  0  0  0  0  0  0  0  0  0
   30.3400   28.4900   35.2600 C   0  0  0  0  0  0  0  0  0  0  0  0
   31.1100   28.8200   34.1400 C   0  0  0  0  0  0  0  0  0  0  0  0
   30.5200   28.6700   32.8800 C   0  0  0  0  0  0  0  0  0  0  0  0
   29.2900   28.0200   32.7700 C   0  0  0  0  0  0  0  0  0  0  0  0
   28.5200   27.7100   33.8900 C   0  0  0  0  0  0  0  0  0  0  0  0
   27.2700   27.0800   33.7600 C   0  0  0  0  0  0  0  0  0  0  0  0
   26.7500   26.8800   32.4900 N   0  0  0  0  0  0  0  0  0  0  0  0
   23.4711   25.0895   36.3361 C   0  0  0  0  0  0  0  0  0  0  0  0
   23.3229   24.0615   35.4592 N   0  0  0  0  0  0  0  0  0  0  0  0
   22.3936   23.0888   35.6348 C   0  0  0  0  0  0  0  0  0  0  0  0
   21.5328   23.1101   36.7446 C   0  0  0  0  0  0  0  0  0  0  0  0
   20.5064   22.0011   36.8747 C   0  0  0  0  0  0  0  0  0  0  0  0
   19.2815   22.4892   37.5451 N   0  0  0  0  0  0  0  0  0  0  0  0
   18.0314   21.9722   36.9421 C   0  0  0  0  0  0  0  0  0  0  0  0
   17.8565   20.4528   37.0757 C   0  0  0  0  0  0  0  0  0  0  0  0
   19.3234   22.3048   39.0110 C   0  0  0  0  0  0  0  0  0  0  0  0
   20.5556   22.9756   39.6259 C   0  0  0  0  0  0  0  0  0  0  0  0
   20.8857   24.2065   38.9033 N   0  0  0  0  0  0  0  0  0  0  0  0
   20.3443   25.4864   39.3719 C   0  0  0  0  0  0  0  0  0  0  0  0
   21.6896   24.1492   37.7023 C   0  0  0  0  0  0  0  0  0  0  0  0
   22.6602   25.1400   37.4756 C   0  0  0  0  0  0  0  0  0  0  0  0
  1  2  1  0
  2  3  2  0
  2  4  1  0
  4  5  2  0
  5  6  1  0
  6  7  2  0
  7  8  1  0
  8  9  2  0
  9 10  1  0
 10 11  2  0
 11 12  1  0
 12 13  2  0
 13 14  1  0
  1 15  1  0
 15 16  2  0
 16 17  1  0
 17 18  2  0
 18 19  1  0
 19 20  1  0
 20 21  1  0
 21 22  1  0
 20 23  1  0
 23 24  1  0
 24 25  1  0
 25 26  1  0
 25 27  1  0
 27 28  2  0
 13  4  1  0
 28 15  1  0
 12  7  1  0
 27 18  1  0
M  END
>  <AAScore>  (1) 
1785.3547859438827

>  <RootName>  (1) 
./4ZLY/04_DeltaGEst/trajectory_00/rank_00/lead_0139

$$$$
