confid_4
     RDKit          3D

 30 34  0  0  0  0  0  0  0  0999 V2000
   24.5700   26.8800   35.5900 N   0  0  0  0  0  0  0  0  0  0  0  0
   25.5000   26.4000   34.6900 C   0  0  0  0  0  0  0  0  0  0  0  0
   25.1700   25.5200   33.9100 O   0  0  0  0  0  0  0  0  0  0  0  0
   26.8400   27.0200   34.7400 C   0  0  0  0  0  0  0  0  0  0  0  0
   27.3800   27.2800   35.9400 N   0  0  0  0  0  0  0  0  0  0  0  0
   28.6200   27.7400   36.0300 N   0  0  0  0  0  0  0  0  0  0  0  0
   29.3800   28.0000   34.9600 C   0  0  0  0  0  0  0  0  0  0  0  0
   30.6700   28.5000   35.1300 C   0  0  0  0  0  0  0  0  0  0  0  0
   31.5400   28.6100   34.0300 C   0  0  0  0  0  0  0  0  0  0  0  0
   31.0900   28.2200   32.7700 C   0  0  0  0  0  0  0  0  0  0  0  0
   29.8000   27.7000   32.6000 C   0  0  0  0  0  0  0  0  0  0  0  0
   28.9600   27.5500   33.7100 C   0  0  0  0  0  0  0  0  0  0  0  0
   27.6600   27.0300   33.5900 C   0  0  0  0  0  0  0  0  0  0  0  0
   27.1600   26.7400   32.3400 N   0  0  0  0  0  0  0  0  0  0  0  0
   23.1777   26.5499   35.5114 C   0  0  0  0  0  0  0  0  0  0  0  0
   22.5547   25.9842   36.4952 N   0  0  0  0  0  0  0  0  0  0  0  0
   21.2436   25.6672   36.0243 C   0  0  0  0  0  0  0  0  0  0  0  0
   21.1029   25.9999   34.7482 C   0  0  0  0  0  0  0  0  0  0  0  0
   19.8363   26.1280   33.9843 C   0  0  2  0  0  0  0  0  0  0  0  0
   19.0448   25.0114   34.1983 F   0  0  0  0  0  0  0  0  0  0  0  0
   20.1273   26.2893   32.4675 C   0  0  2  0  0  0  0  0  0  0  0  0
   21.3413   27.1137   32.1810 N   0  0  0  0  0  0  0  0  0  0  0  0
   21.6484   27.4695   30.7882 C   0  0  0  0  0  0  0  0  0  0  0  0
   21.5030   28.9832   30.6026 C   0  0  0  0  0  0  0  0  0  0  0  0
   21.9471   29.6964   31.7422 O   0  0  0  0  0  0  0  0  0  0  0  0
   23.3231   29.4604   31.9708 C   0  0  0  0  0  0  0  0  0  0  0  0
   23.5767   28.2493   32.9013 C   0  0  0  0  0  0  0  0  0  0  0  0
   22.3871   27.3323   33.1761 C   0  0  0  0  0  0  0  0  0  0  0  0
   22.3113   26.6468   34.3276 C   0  0  0  0  0  0  0  0  0  0  0  0
   18.8718   26.8839   31.7993 C   0  0  0  0  0  0  0  0  0  0  0  0
  1  2  1  0
  2  3  2  0
  2  4  1  0
  4  5  2  0
  5  6  1  0
  6  7  2  0
  7  8  1  0
  8  9  2  0
  9 10  1  0
 10 11  2  0
 11 12  1  0
 12 13  2  0
 13 14  1  0
  1 15  1  0
 15 16  2  0
 16 17  1  0
 17 18  2  0
 18 19  1  0
 19 20  1  6
 19 21  1  0
 21 22  1  0
 22 23  1  0
 23 24  1  0
 24 25  1  0
 25 26  1  0
 26 27  1  0
 27 28  1  0
 28 29  2  0
 21 30  1  6
 13  4  1  0
 29 15  1  0
 12  7  1  0
 29 18  1  0
 28 22  1  0
M  END
>  <AAScore>  (1) 
2820.8073534915625

>  <RootName>  (1) 
./4ZLY/04_DeltaGEst/trajectory_05/rank_00/lead_0087

$$$$
