confid_19
     RDKit          3D

 28 31  0  0  0  0  0  0  0  0999 V2000
   25.3300   26.2600   34.7600 N   0  0  0  0  0  0  0  0  0  0  0  0
   26.1200   25.9200   33.6900 C   0  0  0  0  0  0  0  0  0  0  0  0
   25.6300   25.1100   32.9400 O   0  0  0  0  0  0  0  0  0  0  0  0
   27.5200   26.3800   33.4600 C   0  0  0  0  0  0  0  0  0  0  0  0
   28.1600   26.6300   34.6100 N   0  0  0  0  0  0  0  0  0  0  0  0
   29.4800   26.8500   34.5700 N   0  0  0  0  0  0  0  0  0  0  0  0
   30.1900   26.7800   33.4400 C   0  0  0  0  0  0  0  0  0  0  0  0
   31.5600   27.0500   33.5000 C   0  0  0  0  0  0  0  0  0  0  0  0
   32.2700   27.2400   32.3100 C   0  0  0  0  0  0  0  0  0  0  0  0
   31.6100   27.2500   31.0800 C   0  0  0  0  0  0  0  0  0  0  0  0
   30.2700   26.8700   31.0600 C   0  0  0  0  0  0  0  0  0  0  0  0
   29.5100   26.6900   32.2300 C   0  0  0  0  0  0  0  0  0  0  0  0
   28.1400   26.4100   32.2000 C   0  0  0  0  0  0  0  0  0  0  0  0
   27.4300   26.1300   31.0500 N   0  0  0  0  0  0  0  0  0  0  0  0
   23.8939   26.1692   34.8022 C   0  0  0  0  0  0  0  0  0  0  0  0
   23.2773   25.9929   36.0000 N   0  0  0  0  0  0  0  0  0  0  0  0
   21.9234   25.9309   36.1200 C   0  0  0  0  0  0  0  0  0  0  0  0
   21.3338   25.7100   37.4856 C   0  0  0  0  0  0  0  0  0  0  0  0
   20.5378   26.8950   37.8934 N   0  0  0  0  0  0  0  0  0  0  0  0
   21.0347   27.4760   39.1508 C   0  0  0  0  0  0  0  0  0  0  0  0
   19.0774   26.6312   37.9516 C   0  0  0  0  0  0  0  0  0  0  0  0
   18.3280   27.3880   36.8281 C   0  0  1  0  0  0  0  0  0  0  0  0
   17.9711   28.8104   37.2836 C   0  0  0  0  0  0  0  0  0  0  0  0
   19.0970   27.4498   35.4852 C   0  0  0  0  0  0  0  0  0  0  0  0
   19.6235   26.0831   34.9934 C   0  0  0  0  0  0  0  0  0  0  0  0
   21.1310   26.0636   34.9568 C   0  0  0  0  0  0  0  0  0  0  0  0
   21.7513   26.2753   33.7644 N   0  0  0  0  0  0  0  0  0  0  0  0
   23.1029   26.3293   33.6558 C   0  0  0  0  0  0  0  0  0  0  0  0
  1  2  1  0
  2  3  2  0
  2  4  1  0
  4  5  2  0
  5  6  1  0
  6  7  2  0
  7  8  1  0
  8  9  2  0
  9 10  1  0
 10 11  2  0
 11 12  1  0
 12 13  2  0
 13 14  1  0
  1 15  1  0
 15 16  2  0
 16 17  1  0
 17 18  1  0
 18 19  1  0
 19 20  1  0
 19 21  1  0
 21 22  1  0
 22 23  1  1
 22 24  1  0
 24 25  1  0
 25 26  1  0
 26 27  1  0
 27 28  2  0
 13  4  1  0
 28 15  1  0
 12  7  1  0
 26 17  2  0
M  END
>  <AAScore>  (1) 
4280.959500209043

>  <RootName>  (1) 
./4ZLY/04_DeltaGEst/trajectory_03/rank_00/lead_0324

$$$$
