confid_1
     RDKit          3D

 28 32  0  0  0  0  0  0  0  0999 V2000
   24.5700   26.8800   35.5900 N   0  0  0  0  0  0  0  0  0  0  0  0
   25.5000   26.4000   34.6900 C   0  0  0  0  0  0  0  0  0  0  0  0
   25.1700   25.5200   33.9100 O   0  0  0  0  0  0  0  0  0  0  0  0
   26.8400   27.0200   34.7400 C   0  0  0  0  0  0  0  0  0  0  0  0
   27.3800   27.2800   35.9400 N   0  0  0  0  0  0  0  0  0  0  0  0
   28.6200   27.7400   36.0300 N   0  0  0  0  0  0  0  0  0  0  0  0
   29.3800   28.0000   34.9600 C   0  0  0  0  0  0  0  0  0  0  0  0
   30.6700   28.5000   35.1300 C   0  0  0  0  0  0  0  0  0  0  0  0
   31.5400   28.6100   34.0300 C   0  0  0  0  0  0  0  0  0  0  0  0
   31.0900   28.2200   32.7700 C   0  0  0  0  0  0  0  0  0  0  0  0
   29.8000   27.7000   32.6000 C   0  0  0  0  0  0  0  0  0  0  0  0
   28.9600   27.5500   33.7100 C   0  0  0  0  0  0  0  0  0  0  0  0
   27.6600   27.0300   33.5900 C   0  0  0  0  0  0  0  0  0  0  0  0
   27.1600   26.7400   32.3400 N   0  0  0  0  0  0  0  0  0  0  0  0
   23.3177   26.2361   35.8768 C   0  0  0  0  0  0  0  0  0  0  0  0
   22.4593   26.8632   36.6323 N   0  0  0  0  0  0  0  0  0  0  0  0
   21.1755   26.3238   36.9347 C   0  0  0  0  0  0  0  0  0  0  0  0
   20.3400   26.2210   35.9245 C   0  0  0  0  0  0  0  0  0  0  0  0
   20.0726   26.5869   34.4755 C   0  0  1  0  0  0  0  0  0  0  0  0
   21.2035   26.0246   33.5920 C   0  0  0  0  0  0  0  0  0  0  0  0
   21.5038   24.6043   33.8414 N   0  0  0  0  0  0  0  0  0  0  0  0
   20.9555   23.6526   32.8568 C   0  0  0  0  0  0  0  0  0  0  0  0
   20.8024   22.3598   33.4042 O   0  0  0  0  0  0  0  0  0  0  0  0
   22.0643   21.8662   33.7899 C   0  0  0  0  0  0  0  0  0  0  0  0
   22.5540   22.6089   35.0249 C   0  0  0  0  0  0  0  0  0  0  0  0
   22.4392   24.0946   34.8415 C   0  0  0  0  0  0  0  0  0  0  0  0
   23.1793   24.8212   35.6426 N   0  0  0  0  0  0  0  0  0  0  0  0
   19.1089   25.7639   35.1439 C   0  0  0  0  0  0  0  0  0  0  0  0
  1  2  1  0
  2  3  2  0
  2  4  1  0
  4  5  2  0
  5  6  1  0
  6  7  2  0
  7  8  1  0
  8  9  2  0
  9 10  1  0
 10 11  2  0
 11 12  1  0
 12 13  2  0
 13 14  1  0
  1 15  1  0
 15 16  2  0
 16 17  1  0
 17 18  2  0
 18 19  1  0
 19 20  1  6
 20 21  1  0
 21 22  1  0
 22 23  1  0
 23 24  1  0
 24 25  1  0
 25 26  1  0
 26 27  2  0
 19 28  1  0
 13  4  1  0
 27 15  1  0
 12  7  1  0
 28 18  1  0
 26 21  1  0
M  END
>  <AAScore>  (1) 
4867.605856723933

>  <RootName>  (1) 
./4ZLY/04_DeltaGEst/trajectory_05/rank_00/lead_0194

$$$$
