confid_5
     RDKit          3D

 28 31  0  0  0  0  0  0  0  0999 V2000
   25.3300   26.2600   34.7600 N   0  0  0  0  0  0  0  0  0  0  0  0
   26.1200   25.9200   33.6900 C   0  0  0  0  0  0  0  0  0  0  0  0
   25.6300   25.1100   32.9400 O   0  0  0  0  0  0  0  0  0  0  0  0
   27.5200   26.3800   33.4600 C   0  0  0  0  0  0  0  0  0  0  0  0
   28.1600   26.6300   34.6100 N   0  0  0  0  0  0  0  0  0  0  0  0
   29.4800   26.8500   34.5700 N   0  0  0  0  0  0  0  0  0  0  0  0
   30.1900   26.7800   33.4400 C   0  0  0  0  0  0  0  0  0  0  0  0
   31.5600   27.0500   33.5000 C   0  0  0  0  0  0  0  0  0  0  0  0
   32.2700   27.2400   32.3100 C   0  0  0  0  0  0  0  0  0  0  0  0
   31.6100   27.2500   31.0800 C   0  0  0  0  0  0  0  0  0  0  0  0
   30.2700   26.8700   31.0600 C   0  0  0  0  0  0  0  0  0  0  0  0
   29.5100   26.6900   32.2300 C   0  0  0  0  0  0  0  0  0  0  0  0
   28.1400   26.4100   32.2000 C   0  0  0  0  0  0  0  0  0  0  0  0
   27.4300   26.1300   31.0500 N   0  0  0  0  0  0  0  0  0  0  0  0
   24.1812   25.5212   35.2299 C   0  0  0  0  0  0  0  0  0  0  0  0
   23.9777   24.2379   34.8260 N   0  0  0  0  0  0  0  0  0  0  0  0
   22.9305   23.4752   35.2406 C   0  0  0  0  0  0  0  0  0  0  0  0
   22.8649   22.0600   34.6859 C   0  0  0  0  0  0  0  0  0  0  0  0
   21.5547   21.3820   34.8155 N   0  0  0  0  0  0  0  0  0  0  0  0
   21.5767   20.1034   34.0873 C   0  0  0  0  0  0  0  0  0  0  0  0
   20.4326   22.2319   34.3636 C   0  0  0  0  0  0  0  0  0  0  0  0
   19.8102   22.9535   35.5686 C   0  0  0  0  0  0  0  0  0  0  0  0
   20.8227   23.2509   36.6845 C   0  0  0  0  0  0  0  0  0  0  0  0
   22.0091   24.0255   36.1661 C   0  0  0  0  0  0  0  0  0  0  0  0
   22.1972   25.3481   36.5960 C   0  0  0  0  0  0  0  0  0  0  0  0
   23.2849   26.1079   36.1360 C   0  0  0  0  0  0  0  0  0  0  0  0
   23.4976   27.4331   36.5505 O   0  0  0  0  0  0  0  0  0  0  0  0
   22.6623   28.1400   37.4616 C   0  0  0  0  0  0  0  0  0  0  0  0
  1  2  1  0
  2  3  2  0
  2  4  1  0
  4  5  2  0
  5  6  1  0
  6  7  2  0
  7  8  1  0
  8  9  2  0
  9 10  1  0
 10 11  2  0
 11 12  1  0
 12 13  2  0
 13 14  1  0
  1 15  1  0
 15 16  2  0
 16 17  1  0
 17 18  1  0
 18 19  1  0
 19 20  1  0
 19 21  1  0
 21 22  1  0
 22 23  1  0
 23 24  1  0
 24 25  1  0
 25 26  2  0
 26 27  1  0
 27 28  1  0
 13  4  1  0
 26 15  1  0
 12  7  1  0
 24 17  2  0
M  END
>  <AAScore>  (1) 
6328.102654615939

>  <RootName>  (1) 
./4ZLY/04_DeltaGEst/trajectory_03/rank_00/lead_0119

$$$$
