confid_10
     RDKit          3D

 26 29  0  0  0  0  0  0  0  0999 V2000
   24.5500   26.3900   36.2500 N   0  0  0  0  0  0  0  0  0  0  0  0
   25.6000   26.1300   35.4000 C   0  0  0  0  0  0  0  0  0  0  0  0
   25.4300   25.4300   34.4200 O   0  0  0  0  0  0  0  0  0  0  0  0
   26.9800   26.6300   35.7100 C   0  0  0  0  0  0  0  0  0  0  0  0
   27.3200   26.8200   36.9800 N   0  0  0  0  0  0  0  0  0  0  0  0
   28.4700   27.4000   37.3100 N   0  0  0  0  0  0  0  0  0  0  0  0
   29.4000   27.6300   36.3700 C   0  0  0  0  0  0  0  0  0  0  0  0
   30.6600   28.0500   36.8000 C   0  0  0  0  0  0  0  0  0  0  0  0
   31.5700   28.3600   35.7800 C   0  0  0  0  0  0  0  0  0  0  0  0
   31.3700   28.1000   34.4300 C   0  0  0  0  0  0  0  0  0  0  0  0
   30.1200   27.5900   34.0500 C   0  0  0  0  0  0  0  0  0  0  0  0
   29.1500   27.3400   35.0300 C   0  0  0  0  0  0  0  0  0  0  0  0
   27.8800   26.8900   34.6600 C   0  0  0  0  0  0  0  0  0  0  0  0
   27.4800   26.6100   33.3700 N   0  0  0  0  0  0  0  0  0  0  0  0
   23.1605   26.2820   35.8937 C   0  0  0  0  0  0  0  0  0  0  0  0
   22.2785   26.1035   36.8544 N   0  0  0  0  0  0  0  0  0  0  0  0
   20.8649   26.0075   36.5995 C   0  0  0  0  0  0  0  0  0  0  0  0
   20.4826   26.3757   35.3949 C   0  0  0  0  0  0  0  0  0  0  0  0
   19.6070   25.9780   34.2474 C   0  0  0  0  0  0  0  0  0  0  0  0
   20.4878   26.4619   33.2740 O   0  0  0  0  0  0  0  0  0  0  0  0
   21.2933   26.9539   34.3011 C   0  0  2  0  0  0  0  0  0  0  0  0
   22.7088   26.3405   34.4182 C   0  0  0  0  0  0  0  0  0  0  0  0
   21.2931   28.7521   34.3371 S   0  0  0  0  0  6  0  0  0  0  0  0
   22.0774   29.2414   35.5222 O   0  0  0  0  0  0  0  0  0  0  0  0
   19.8805   29.2555   34.4402 O   0  0  0  0  0  0  0  0  0  0  0  0
   22.0241   29.3924   32.8459 C   0  0  0  0  0  0  0  0  0  0  0  0
  1  2  1  0
  2  3  2  0
  2  4  1  0
  4  5  2  0
  5  6  1  0
  6  7  2  0
  7  8  1  0
  8  9  2  0
  9 10  1  0
 10 11  2  0
 11 12  1  0
 12 13  2  0
 13 14  1  0
  1 15  1  0
 15 16  2  0
 16 17  1  0
 17 18  2  0
 18 19  1  0
 19 20  1  0
 20 21  1  0
 21 22  1  0
 21 23  1  1
 23 24  2  0
 23 25  2  0
 23 26  1  0
 13  4  1  0
 22 15  1  0
 12  7  1  0
 21 18  1  0
M  END
>  <AAScore>  (1) 
1210.783582937751

>  <RootName>  (1) 
./4ZLY/04_DeltaGEst/trajectory_01/rank_00/lead_0177

$$$$
