confid_10
     RDKit          3D

 28 31  0  0  0  0  0  0  0  0999 V2000
   24.6900   26.1200   35.5300 N   0  0  0  0  0  0  0  0  0  0  0  0
   25.6600   25.6700   34.6600 C   0  0  0  0  0  0  0  0  0  0  0  0
   25.2400   25.0100   33.7200 O   0  0  0  0  0  0  0  0  0  0  0  0
   27.0300   26.2200   34.8800 C   0  0  0  0  0  0  0  0  0  0  0  0
   27.3500   26.7300   36.0700 N   0  0  0  0  0  0  0  0  0  0  0  0
   28.5700   27.1800   36.3300 N   0  0  0  0  0  0  0  0  0  0  0  0
   29.5300   27.1100   35.3900 C   0  0  0  0  0  0  0  0  0  0  0  0
   30.8300   27.5700   35.6500 C   0  0  0  0  0  0  0  0  0  0  0  0
   31.8500   27.5400   34.6900 C   0  0  0  0  0  0  0  0  0  0  0  0
   31.5100   27.1200   33.4000 C   0  0  0  0  0  0  0  0  0  0  0  0
   30.2200   26.6300   33.1100 C   0  0  0  0  0  0  0  0  0  0  0  0
   29.2400   26.6600   34.1000 C   0  0  0  0  0  0  0  0  0  0  0  0
   27.9300   26.2600   33.8100 C   0  0  0  0  0  0  0  0  0  0  0  0
   27.5200   25.7100   32.6100 N   0  0  0  0  0  0  0  0  0  0  0  0
   31.1493   28.0689   36.9617 N   0  0  0  0  0  0  0  0  0  0  0  0
   32.1054   27.3434   37.8053 C   0  0  0  0  0  0  0  0  0  0  0  0
   31.3717   26.4319   38.7929 C   0  0  0  0  0  0  0  0  0  0  0  0
   30.1923   27.0847   39.3748 N   0  0  0  0  0  0  0  0  0  0  0  0
   29.0121   26.2752   39.6817 C   0  0  0  0  0  0  0  0  0  0  0  0
   30.2642   28.4449   39.8411 C   0  0  0  0  0  0  0  0  0  0  0  0
   30.1511   28.7227   41.2150 C   0  0  0  0  0  0  0  0  0  0  0  0
   30.0481   27.7121   42.1142 F   0  0  0  0  0  0  0  0  0  0  0  0
   30.1525   30.0434   41.6691 C   0  0  0  0  0  0  0  0  0  0  0  0
   30.2564   31.0967   40.7604 C   0  0  0  0  0  0  0  0  0  0  0  0
   30.3684   30.8349   39.3934 C   0  0  0  0  0  0  0  0  0  0  0  0
   30.3859   29.5115   38.9195 C   0  0  0  0  0  0  0  0  0  0  0  0
   30.5026   29.2560   37.4624 C   0  0  0  0  0  0  0  0  0  0  0  0
   30.0355   30.0989   36.6479 O   0  0  0  0  0  0  0  0  0  0  0  0
  1  2  1  0
  2  3  2  0
  2  4  1  0
  4  5  2  0
  5  6  1  0
  6  7  2  0
  7  8  1  0
  8  9  2  0
  9 10  1  0
 10 11  2  0
 11 12  1  0
 12 13  2  0
 13 14  1  0
  8 15  1  0
 15 16  1  0
 16 17  1  0
 17 18  1  0
 18 19  1  0
 18 20  1  0
 20 21  2  0
 21 22  1  0
 21 23  1  0
 23 24  2  0
 24 25  1  0
 25 26  2  0
 26 27  1  0
 27 28  2  0
 13  4  1  0
 27 15  1  0
 12  7  1  0
 26 20  1  0
M  END
>  <AAScore>  (1) 
6.937687314003579

>  <RootName>  (1) 
./4ZLY/04_DeltaGEst/trajectory_02/rank_01/lead_0306

$$$$
