confid_2
     RDKit          3D

 30 34  0  0  0  0  0  0  0  0999 V2000
   24.4800   26.1000   36.1300 N   0  0  0  0  0  0  0  0  0  0  0  0
   25.2500   26.2500   34.9900 C   0  0  0  0  0  0  0  0  0  0  0  0
   24.7400   25.7600   33.9900 O   0  0  0  0  0  0  0  0  0  0  0  0
   26.5900   26.8900   34.9600 C   0  0  0  0  0  0  0  0  0  0  0  0
   27.0600   27.2400   36.1600 N   0  0  0  0  0  0  0  0  0  0  0  0
   28.3000   27.7100   36.2400 N   0  0  0  0  0  0  0  0  0  0  0  0
   29.0500   27.9600   35.1500 C   0  0  0  0  0  0  0  0  0  0  0  0
   30.3400   28.4900   35.2600 C   0  0  0  0  0  0  0  0  0  0  0  0
   31.1100   28.8200   34.1400 C   0  0  0  0  0  0  0  0  0  0  0  0
   30.5200   28.6700   32.8800 C   0  0  0  0  0  0  0  0  0  0  0  0
   29.2900   28.0200   32.7700 C   0  0  0  0  0  0  0  0  0  0  0  0
   28.5200   27.7100   33.8900 C   0  0  0  0  0  0  0  0  0  0  0  0
   27.2700   27.0800   33.7600 C   0  0  0  0  0  0  0  0  0  0  0  0
   26.7500   26.8800   32.4900 N   0  0  0  0  0  0  0  0  0  0  0  0
   23.5064   25.0618   36.3319 C   0  0  0  0  0  0  0  0  0  0  0  0
   22.3635   25.3718   36.9000 N   0  0  0  0  0  0  0  0  0  0  0  0
   21.3157   24.4093   37.1257 C   0  0  0  0  0  0  0  0  0  0  0  0
   21.6201   23.1450   36.8909 C   0  0  0  0  0  0  0  0  0  0  0  0
   21.1388   22.0428   35.9964 C   0  0  0  0  0  0  0  0  0  0  0  0
   22.4225   21.6208   35.6431 O   0  0  0  0  0  0  0  0  0  0  0  0
   22.9414   22.5406   36.5566 C   0  0  1  0  0  0  0  0  0  0  0  0
   23.8026   23.6317   35.9647 C   0  0  0  0  0  0  0  0  0  0  0  0
   24.8137   23.3271   35.2777 O   0  0  0  0  0  0  0  0  0  0  0  0
   23.6190   21.8649   37.7376 C   0  0  0  0  0  0  0  0  0  0  0  0
   24.2588   20.6220   37.5733 C   0  0  0  0  0  0  0  0  0  0  0  0
   24.9230   20.0195   38.6461 C   0  0  0  0  0  0  0  0  0  0  0  0
   24.9722   20.6572   39.8880 C   0  0  0  0  0  0  0  0  0  0  0  0
   24.3639   21.9033   40.0569 C   0  0  0  0  0  0  0  0  0  0  0  0
   23.6984   22.5097   38.9875 C   0  0  0  0  0  0  0  0  0  0  0  0
   25.6194   20.0721   40.9258 F   0  0  0  0  0  0  0  0  0  0  0  0
  1  2  1  0
  2  3  2  0
  2  4  1  0
  4  5  2  0
  5  6  1  0
  6  7  2  0
  7  8  1  0
  8  9  2  0
  9 10  1  0
 10 11  2  0
 11 12  1  0
 12 13  2  0
 13 14  1  0
  1 15  1  0
 15 16  2  0
 16 17  1  0
 17 18  2  0
 18 19  1  0
 19 20  1  0
 20 21  1  0
 21 22  1  0
 22 23  2  0
 21 24  1  1
 24 25  2  0
 25 26  1  0
 26 27  2  0
 27 28  1  0
 28 29  2  0
 27 30  1  0
 13  4  1  0
 22 15  1  0
 29 24  1  0
 12  7  1  0
 21 18  1  0
M  END
>  <AAScore>  (1) 
1130.1896887465548

>  <RootName>  (1) 
./4ZLY/04_DeltaGEst/trajectory_00/rank_01/lead_0335

$$$$
