confid_3
     RDKit          3D

 27 29  0  0  0  0  0  0  0  0999 V2000
   24.5500   26.3900   36.2500 N   0  0  0  0  0  0  0  0  0  0  0  0
   25.6000   26.1300   35.4000 C   0  0  0  0  0  0  0  0  0  0  0  0
   25.4300   25.4300   34.4200 O   0  0  0  0  0  0  0  0  0  0  0  0
   26.9800   26.6300   35.7100 C   0  0  0  0  0  0  0  0  0  0  0  0
   27.3200   26.8200   36.9800 N   0  0  0  0  0  0  0  0  0  0  0  0
   28.4700   27.4000   37.3100 N   0  0  0  0  0  0  0  0  0  0  0  0
   29.4000   27.6300   36.3700 C   0  0  0  0  0  0  0  0  0  0  0  0
   30.6600   28.0500   36.8000 C   0  0  0  0  0  0  0  0  0  0  0  0
   31.5700   28.3600   35.7800 C   0  0  0  0  0  0  0  0  0  0  0  0
   31.3700   28.1000   34.4300 C   0  0  0  0  0  0  0  0  0  0  0  0
   30.1200   27.5900   34.0500 C   0  0  0  0  0  0  0  0  0  0  0  0
   29.1500   27.3400   35.0300 C   0  0  0  0  0  0  0  0  0  0  0  0
   27.8800   26.8900   34.6600 C   0  0  0  0  0  0  0  0  0  0  0  0
   27.4800   26.6100   33.3700 N   0  0  0  0  0  0  0  0  0  0  0  0
   23.2070   25.8239   36.0826 C   0  0  1  0  0  0  0  0  0  0  0  0
   22.6843   25.3223   37.4358 C   0  0  0  0  0  0  0  0  0  0  0  0
   21.2249   24.8840   37.3058 C   0  0  0  0  0  0  0  0  0  0  0  0
   20.4047   25.9689   36.7454 N   0  0  0  0  0  0  0  0  0  0  0  0
   18.9921   26.0012   37.0371 C   0  0  0  0  0  0  0  0  0  0  0  0
   18.4143   24.9546   37.4420 O   0  0  0  0  0  0  0  0  0  0  0  0
   18.1786   27.2499   36.8450 C   0  0  0  0  0  0  0  0  0  0  0  0
   17.0691   27.2313   37.7182 O   0  0  0  0  0  0  0  0  0  0  0  0
   16.1979   28.3127   37.4450 C   0  0  0  0  0  0  0  0  0  0  0  0
   15.0400   27.8623   36.5458 C   0  0  0  0  0  0  0  0  0  0  0  0
   14.2214   26.7438   37.1887 C   0  0  0  0  0  0  0  0  0  0  0  0
   20.9806   26.8872   35.7910 C   0  0  0  0  0  0  0  0  0  0  0  0
   22.2863   26.8639   35.5022 C   0  0  0  0  0  0  0  0  0  0  0  0
  1  2  1  0
  2  3  2  0
  2  4  1  0
  4  5  2  0
  5  6  1  0
  6  7  2  0
  7  8  1  0
  8  9  2  0
  9 10  1  0
 10 11  2  0
 11 12  1  0
 12 13  2  0
 13 14  1  0
 15  1  1  1
 15 16  1  0
 16 17  1  0
 17 18  1  0
 18 19  1  0
 19 20  2  0
 19 21  1  0
 21 22  1  0
 22 23  1  0
 23 24  1  0
 24 25  1  0
 18 26  1  0
 26 27  2  0
 13  4  1  0
 27 15  1  0
 12  7  1  0
M  END
>  <AAScore>  (1) 
152.15422343136663

>  <RootName>  (1) 
./4ZLY/04_DeltaGEst/trajectory_01/rank_00/lead_0057

$$$$
