confid_11
     RDKit          3D

 27 30  0  0  0  0  0  0  0  0999 V2000
   24.6900   26.1200   35.5300 N   0  0  0  0  0  0  0  0  0  0  0  0
   25.6600   25.6700   34.6600 C   0  0  0  0  0  0  0  0  0  0  0  0
   25.2400   25.0100   33.7200 O   0  0  0  0  0  0  0  0  0  0  0  0
   27.0300   26.2200   34.8800 C   0  0  0  0  0  0  0  0  0  0  0  0
   27.3500   26.7300   36.0700 N   0  0  0  0  0  0  0  0  0  0  0  0
   28.5700   27.1800   36.3300 N   0  0  0  0  0  0  0  0  0  0  0  0
   29.5300   27.1100   35.3900 C   0  0  0  0  0  0  0  0  0  0  0  0
   30.8300   27.5700   35.6500 C   0  0  0  0  0  0  0  0  0  0  0  0
   31.8500   27.5400   34.6900 C   0  0  0  0  0  0  0  0  0  0  0  0
   31.5100   27.1200   33.4000 C   0  0  0  0  0  0  0  0  0  0  0  0
   30.2200   26.6300   33.1100 C   0  0  0  0  0  0  0  0  0  0  0  0
   29.2400   26.6600   34.1000 C   0  0  0  0  0  0  0  0  0  0  0  0
   27.9300   26.2600   33.8100 C   0  0  0  0  0  0  0  0  0  0  0  0
   27.5200   25.7100   32.6100 N   0  0  0  0  0  0  0  0  0  0  0  0
   31.1487   28.0587   36.9616 N   0  0  0  0  0  0  0  0  0  0  0  0
   31.3496   29.5054   37.1450 C   0  0  0  0  0  0  0  0  0  0  0  0
   31.8620   29.8523   38.5502 C   0  0  0  0  0  0  0  0  0  0  0  0
   31.1146   29.0735   39.6039 C   0  0  0  0  0  0  0  0  0  0  0  0
   30.7462   29.6590   40.8331 C   0  0  0  0  0  0  0  0  0  0  0  0
   30.0927   28.8701   41.7998 C   0  0  0  0  0  0  0  0  0  0  0  0
   29.8336   27.5206   41.5551 C   0  0  0  0  0  0  0  0  0  0  0  0
   30.2180   26.9366   40.3478 C   0  0  0  0  0  0  0  0  0  0  0  0
   29.9751   25.6170   40.1433 F   0  0  0  0  0  0  0  0  0  0  0  0
   30.8514   27.7118   39.3633 C   0  0  0  0  0  0  0  0  0  0  0  0
   31.3117   27.1012   38.0652 C   0  0  0  0  0  0  0  0  0  0  0  0
   31.0435   31.0126   41.0633 O   0  0  0  0  0  0  0  0  0  0  0  0
   30.7261   31.7186   42.2584 C   0  0  0  0  0  0  0  0  0  0  0  0
  1  2  1  0
  2  3  2  0
  2  4  1  0
  4  5  2  0
  5  6  1  0
  6  7  2  0
  7  8  1  0
  8  9  2  0
  9 10  1  0
 10 11  2  0
 11 12  1  0
 12 13  2  0
 13 14  1  0
  8 15  1  0
 15 16  1  0
 16 17  1  0
 17 18  1  0
 18 19  2  0
 19 20  1  0
 20 21  2  0
 21 22  1  0
 22 23  1  0
 22 24  2  0
 24 25  1  0
 19 26  1  0
 26 27  1  0
 13  4  1  0
 25 15  1  0
 12  7  1  0
 24 18  1  0
M  END
>  <AAScore>  (1) 
-6.6808834652533

>  <RootName>  (1) 
./4ZLY/04_DeltaGEst/trajectory_02/rank_01/lead_0151

$$$$
