confid_2
     RDKit          3D

 27 30  0  0  0  0  0  0  0  0999 V2000
   25.3300   26.2600   34.7600 N   0  0  0  0  0  0  0  0  0  0  0  0
   26.1200   25.9200   33.6900 C   0  0  0  0  0  0  0  0  0  0  0  0
   25.6300   25.1100   32.9400 O   0  0  0  0  0  0  0  0  0  0  0  0
   27.5200   26.3800   33.4600 C   0  0  0  0  0  0  0  0  0  0  0  0
   28.1600   26.6300   34.6100 N   0  0  0  0  0  0  0  0  0  0  0  0
   29.4800   26.8500   34.5700 N   0  0  0  0  0  0  0  0  0  0  0  0
   30.1900   26.7800   33.4400 C   0  0  0  0  0  0  0  0  0  0  0  0
   31.5600   27.0500   33.5000 C   0  0  0  0  0  0  0  0  0  0  0  0
   32.2700   27.2400   32.3100 C   0  0  0  0  0  0  0  0  0  0  0  0
   31.6100   27.2500   31.0800 C   0  0  0  0  0  0  0  0  0  0  0  0
   30.2700   26.8700   31.0600 C   0  0  0  0  0  0  0  0  0  0  0  0
   29.5100   26.6900   32.2300 C   0  0  0  0  0  0  0  0  0  0  0  0
   28.1400   26.4100   32.2000 C   0  0  0  0  0  0  0  0  0  0  0  0
   27.4300   26.1300   31.0500 N   0  0  0  0  0  0  0  0  0  0  0  0
   26.5247   27.1383   30.4882 C   0  0  0  0  0  0  0  0  0  0  0  0
   26.7396   27.2420   28.9752 C   0  0  0  0  0  0  0  0  0  0  0  0
   26.8110   25.9129   28.3452 N   0  0  0  0  0  0  0  0  0  0  0  0
   26.7012   25.8074   26.9169 C   0  0  0  0  0  0  0  0  0  0  0  0
   25.8275   25.0514   26.4136 O   0  0  0  0  0  0  0  0  0  0  0  0
   27.5954   26.5570   26.0217 C   0  0  0  0  0  0  0  0  0  0  0  0
   28.8141   27.1217   26.3326 C   0  0  0  0  0  0  0  0  0  0  0  0
   29.3242   27.6915   25.2241 N   0  0  0  0  0  0  0  0  0  0  0  0
   28.3842   27.4483   24.2859 C   0  0  0  0  0  0  0  0  0  0  0  0
   28.5152   27.8730   22.8631 C   0  0  0  0  0  0  0  0  0  0  0  0
   27.3617   26.7667   24.7507 O   0  0  0  0  0  0  0  0  0  0  0  0
   26.6973   24.6985   29.1620 C   0  0  0  0  0  0  0  0  0  0  0  0
   27.5830   24.8166   30.4064 C   0  0  0  0  0  0  0  0  0  0  0  0
  1  2  1  0
  2  3  2  0
  2  4  1  0
  4  5  2  0
  5  6  1  0
  6  7  2  0
  7  8  1  0
  8  9  2  0
  9 10  1  0
 10 11  2  0
 11 12  1  0
 12 13  2  0
 13 14  1  0
 14 15  1  0
 15 16  1  0
 16 17  1  0
 17 18  1  0
 18 19  2  0
 18 20  1  0
 20 21  2  0
 21 22  1  0
 22 23  2  0
 23 24  1  0
 23 25  1  0
 17 26  1  0
 26 27  1  0
 13  4  1  0
 27 14  1  0
 12  7  1  0
 25 20  1  0
M  END
>  <AAScore>  (1) 
-0.7080666782956028

>  <RootName>  (1) 
./4ZLY/04_DeltaGEst/trajectory_03/rank_01/lead_0065

$$$$
