confid_16
     RDKit          3D

 28 31  0  0  0  0  0  0  0  0999 V2000
   24.2000   26.2400   35.6900 N   0  0  0  0  0  0  0  0  0  0  0  0
   24.8500   26.2800   34.4800 C   0  0  0  0  0  0  0  0  0  0  0  0
   24.3100   25.7400   33.5400 O   0  0  0  0  0  0  0  0  0  0  0  0
   26.1800   26.9700   34.4700 C   0  0  0  0  0  0  0  0  0  0  0  0
   26.6500   27.6000   35.5500 N   0  0  0  0  0  0  0  0  0  0  0  0
   27.7900   28.2700   35.6200 N   0  0  0  0  0  0  0  0  0  0  0  0
   28.5400   28.3000   34.5100 C   0  0  0  0  0  0  0  0  0  0  0  0
   29.7700   28.9400   34.5600 C   0  0  0  0  0  0  0  0  0  0  0  0
   30.7000   28.8900   33.5000 C   0  0  0  0  0  0  0  0  0  0  0  0
   30.3700   28.1400   32.3700 C   0  0  0  0  0  0  0  0  0  0  0  0
   29.1200   27.5200   32.2800 C   0  0  0  0  0  0  0  0  0  0  0  0
   28.2100   27.6100   33.3300 C   0  0  0  0  0  0  0  0  0  0  0  0
   26.9700   26.9700   33.3100 C   0  0  0  0  0  0  0  0  0  0  0  0
   26.5300   26.2400   32.2200 N   0  0  0  0  0  0  0  0  0  0  0  0
   30.1406   29.6590   35.7482 N   0  0  0  0  0  0  0  0  0  0  0  0
   30.6114   28.9134   36.9261 C   0  0  0  0  0  0  0  0  0  0  0  0
   30.0133   29.5078   38.2080 C   0  0  0  0  0  0  0  0  0  0  0  0
   30.1071   31.0001   38.1766 C   0  0  0  0  0  0  0  0  0  0  0  0
   29.9304   32.0401   39.4828 S   0  0  0  0  0  0  0  0  0  0  0  0
   30.0462   33.4654   38.5823 C   0  0  0  0  0  0  0  0  0  0  0  0
   30.1871   33.1314   37.2359 C   0  0  0  0  0  0  0  0  0  0  0  0
   30.2110   31.7487   37.0136 C   0  0  0  0  0  0  0  0  0  0  0  0
   30.3771   31.1085   35.6660 C   0  0  0  0  0  0  0  0  0  0  0  0
   29.9233   34.8396   39.1088 C   0  0  0  0  0  0  0  0  0  0  0  0
   29.6434   35.7733   38.3090 O   0  0  0  0  0  0  0  0  0  0  0  0
   30.0871   35.1372   40.5084 N   0  0  0  0  0  0  0  0  0  0  0  0
   29.2415   36.1614   41.1222 C   0  0  0  0  0  0  0  0  0  0  0  0
   31.0913   34.4508   41.3240 C   0  0  0  0  0  0  0  0  0  0  0  0
  1  2  1  0
  2  3  2  0
  2  4  1  0
  4  5  2  0
  5  6  1  0
  6  7  2  0
  7  8  1  0
  8  9  2  0
  9 10  1  0
 10 11  2  0
 11 12  1  0
 12 13  2  0
 13 14  1  0
  8 15  1  0
 15 16  1  0
 16 17  1  0
 17 18  1  0
 18 19  1  0
 19 20  1  0
 20 21  2  0
 21 22  1  0
 22 23  1  0
 20 24  1  0
 24 25  2  0
 24 26  1  0
 26 27  1  0
 26 28  1  0
 13  4  1  0
 23 15  1  0
 12  7  1  0
 22 18  2  0
M  END
>  <AAScore>  (1) 
22.379940229438084

>  <RootName>  (1) 
./4ZLY/04_DeltaGEst/trajectory_04/rank_01/lead_0042

$$$$
