confid_10
     RDKit          3D

 27 30  0  0  0  0  0  0  0  0999 V2000
   24.2000   26.2400   35.6900 N   0  0  0  0  0  0  0  0  0  0  0  0
   24.8500   26.2800   34.4800 C   0  0  0  0  0  0  0  0  0  0  0  0
   24.3100   25.7400   33.5400 O   0  0  0  0  0  0  0  0  0  0  0  0
   26.1800   26.9700   34.4700 C   0  0  0  0  0  0  0  0  0  0  0  0
   26.6500   27.6000   35.5500 N   0  0  0  0  0  0  0  0  0  0  0  0
   27.7900   28.2700   35.6200 N   0  0  0  0  0  0  0  0  0  0  0  0
   28.5400   28.3000   34.5100 C   0  0  0  0  0  0  0  0  0  0  0  0
   29.7700   28.9400   34.5600 C   0  0  0  0  0  0  0  0  0  0  0  0
   30.7000   28.8900   33.5000 C   0  0  0  0  0  0  0  0  0  0  0  0
   30.3700   28.1400   32.3700 C   0  0  0  0  0  0  0  0  0  0  0  0
   29.1200   27.5200   32.2800 C   0  0  0  0  0  0  0  0  0  0  0  0
   28.2100   27.6100   33.3300 C   0  0  0  0  0  0  0  0  0  0  0  0
   26.9700   26.9700   33.3100 C   0  0  0  0  0  0  0  0  0  0  0  0
   26.5300   26.2400   32.2200 N   0  0  0  0  0  0  0  0  0  0  0  0
   30.1437   29.6650   35.7435 N   0  0  0  0  0  0  0  0  0  0  0  0
   29.4942   30.9599   36.0155 C   0  0  0  0  0  0  0  0  0  0  0  0
   30.2553   31.7841   37.0623 C   0  0  0  0  0  0  0  0  0  0  0  0
   30.6290   30.9240   38.2382 C   0  0  0  0  0  0  0  0  0  0  0  0
   30.5564   31.4070   39.5563 C   0  0  0  0  0  0  0  0  0  0  0  0
   30.9384   30.5880   40.6238 C   0  0  0  0  0  0  0  0  0  0  0  0
   31.4109   29.2921   40.3842 C   0  0  0  0  0  0  0  0  0  0  0  0
   31.5064   28.8154   39.0710 C   0  0  0  0  0  0  0  0  0  0  0  0
   31.1088   29.6256   37.9964 C   0  0  0  0  0  0  0  0  0  0  0  0
   31.2370   29.1422   36.5767 C   0  0  0  0  0  0  0  0  0  0  0  0
   31.8053   28.4538   41.4864 C   0  0  0  0  0  0  0  0  0  0  0  0
   32.1217   27.7797   42.3723 N   0  0  0  0  0  0  0  0  0  0  0  0
   30.1190   32.6664   39.8105 F   0  0  0  0  0  0  0  0  0  0  0  0
  1  2  1  0
  2  3  2  0
  2  4  1  0
  4  5  2  0
  5  6  1  0
  6  7  2  0
  7  8  1  0
  8  9  2  0
  9 10  1  0
 10 11  2  0
 11 12  1  0
 12 13  2  0
 13 14  1  0
  8 15  1  0
 15 16  1  0
 16 17  1  0
 17 18  1  0
 18 19  2  0
 19 20  1  0
 20 21  2  0
 21 22  1  0
 22 23  2  0
 23 24  1  0
 21 25  1  0
 25 26  3  0
 19 27  1  0
 13  4  1  0
 24 15  1  0
 12  7  1  0
 23 18  1  0
M  END
>  <AAScore>  (1) 
-7.526720977887292

>  <RootName>  (1) 
./4ZLY/04_DeltaGEst/trajectory_04/rank_01/lead_0165

$$$$
