confid_10
     RDKit          3D

 27 30  0  0  0  0  0  0  0  0999 V2000
   24.5500   26.3900   36.2500 N   0  0  0  0  0  0  0  0  0  0  0  0
   25.6000   26.1300   35.4000 C   0  0  0  0  0  0  0  0  0  0  0  0
   25.4300   25.4300   34.4200 O   0  0  0  0  0  0  0  0  0  0  0  0
   26.9800   26.6300   35.7100 C   0  0  0  0  0  0  0  0  0  0  0  0
   27.3200   26.8200   36.9800 N   0  0  0  0  0  0  0  0  0  0  0  0
   28.4700   27.4000   37.3100 N   0  0  0  0  0  0  0  0  0  0  0  0
   29.4000   27.6300   36.3700 C   0  0  0  0  0  0  0  0  0  0  0  0
   30.6600   28.0500   36.8000 C   0  0  0  0  0  0  0  0  0  0  0  0
   31.5700   28.3600   35.7800 C   0  0  0  0  0  0  0  0  0  0  0  0
   31.3700   28.1000   34.4300 C   0  0  0  0  0  0  0  0  0  0  0  0
   30.1200   27.5900   34.0500 C   0  0  0  0  0  0  0  0  0  0  0  0
   29.1500   27.3400   35.0300 C   0  0  0  0  0  0  0  0  0  0  0  0
   27.8800   26.8900   34.6600 C   0  0  0  0  0  0  0  0  0  0  0  0
   27.4800   26.6100   33.3700 N   0  0  0  0  0  0  0  0  0  0  0  0
   23.1636   26.2161   35.9102 C   0  0  0  0  0  0  0  0  0  0  0  0
   22.2808   25.8971   36.8928 N   0  0  0  0  0  0  0  0  0  0  0  0
   20.9541   25.7427   36.6513 C   0  0  0  0  0  0  0  0  0  0  0  0
   20.4436   25.9162   35.3567 C   0  0  0  0  0  0  0  0  0  0  0  0
   18.9689   25.7607   35.1055 C   0  0  0  0  0  0  0  0  0  0  0  0
   18.3649   27.0991   34.7862 C   0  0  0  0  0  0  0  0  0  0  0  0
   17.3359   27.4456   35.3465 O   0  0  0  0  0  0  0  0  0  0  0  0
   19.0248   28.0308   33.8023 C   0  0  0  0  0  0  0  0  0  0  0  0
   19.6460   27.2713   32.6197 C   0  0  0  0  0  0  0  0  0  0  0  0
   20.8519   26.4900   32.9624 N   0  0  0  0  0  0  0  0  0  0  0  0
   21.3252   26.2840   34.3159 C   0  0  0  0  0  0  0  0  0  0  0  0
   22.6910   26.4353   34.6061 C   0  0  0  0  0  0  0  0  0  0  0  0
   21.5595   25.8215   31.8660 C   0  0  0  0  0  0  0  0  0  0  0  0
  1  2  1  0
  2  3  2  0
  2  4  1  0
  4  5  2  0
  5  6  1  0
  6  7  2  0
  7  8  1  0
  8  9  2  0
  9 10  1  0
 10 11  2  0
 11 12  1  0
 12 13  2  0
 13 14  1  0
  1 15  1  0
 15 16  2  0
 16 17  1  0
 17 18  2  0
 18 19  1  0
 19 20  1  0
 20 21  2  0
 20 22  1  0
 22 23  1  0
 23 24  1  0
 24 25  1  0
 25 26  2  0
 24 27  1  0
 13  4  1  0
 26 15  1  0
 12  7  1  0
 25 18  1  0
M  END
>  <AAScore>  (1) 
1439.8153297855254

>  <RootName>  (1) 
./4ZLY/04_DeltaGEst/trajectory_01/rank_00/lead_0068

$$$$
