confid_3
     RDKit          3D

 27 31  0  0  0  0  0  0  0  0999 V2000
   24.4800   26.1000   36.1300 N   0  0  0  0  0  0  0  0  0  0  0  0
   25.2500   26.2500   34.9900 C   0  0  0  0  0  0  0  0  0  0  0  0
   24.7400   25.7600   33.9900 O   0  0  0  0  0  0  0  0  0  0  0  0
   26.5900   26.8900   34.9600 C   0  0  0  0  0  0  0  0  0  0  0  0
   27.0600   27.2400   36.1600 N   0  0  0  0  0  0  0  0  0  0  0  0
   28.3000   27.7100   36.2400 N   0  0  0  0  0  0  0  0  0  0  0  0
   29.0500   27.9600   35.1500 C   0  0  0  0  0  0  0  0  0  0  0  0
   30.3400   28.4900   35.2600 C   0  0  0  0  0  0  0  0  0  0  0  0
   31.1100   28.8200   34.1400 C   0  0  0  0  0  0  0  0  0  0  0  0
   30.5200   28.6700   32.8800 C   0  0  0  0  0  0  0  0  0  0  0  0
   29.2900   28.0200   32.7700 C   0  0  0  0  0  0  0  0  0  0  0  0
   28.5200   27.7100   33.8900 C   0  0  0  0  0  0  0  0  0  0  0  0
   27.2700   27.0800   33.7600 C   0  0  0  0  0  0  0  0  0  0  0  0
   26.7500   26.8800   32.4900 N   0  0  0  0  0  0  0  0  0  0  0  0
   23.4851   25.0816   36.2954 C   0  0  0  0  0  0  0  0  0  0  0  0
   22.3385   25.0186   36.9571 C   0  0  0  0  0  0  0  0  0  0  0  0
   22.1047   23.6828   36.4257 C   0  0  0  0  0  0  0  0  0  0  0  0
   21.0976   22.7317   36.4985 O   0  0  0  0  0  0  0  0  0  0  0  0
   21.3309   21.4002   36.0504 C   0  0  0  0  0  0  0  0  0  0  0  0
   21.8863   21.3775   34.7312 O   0  0  0  0  0  0  0  0  0  0  0  0
   23.2416   21.6192   34.4422 C   0  0  0  0  0  0  0  0  0  0  0  0
   23.8910   20.7539   33.5564 C   0  0  0  0  0  0  0  0  0  0  0  0
   25.2464   20.9348   33.2784 C   0  0  0  0  0  0  0  0  0  0  0  0
   25.9319   21.9513   33.8627 N   0  0  0  0  0  0  0  0  0  0  0  0
   25.3272   22.8294   34.7051 C   0  0  0  0  0  0  0  0  0  0  0  0
   23.9605   22.7059   34.9929 C   0  0  0  0  0  0  0  0  0  0  0  0
   23.2761   23.7066   35.8226 C   0  0  0  0  0  0  0  0  0  0  0  0
  1  2  1  0
  2  3  2  0
  2  4  1  0
  4  5  2  0
  5  6  1  0
  6  7  2  0
  7  8  1  0
  8  9  2  0
  9 10  1  0
 10 11  2  0
 11 12  1  0
 12 13  2  0
 13 14  1  0
  1 15  1  0
 15 16  2  0
 16 17  1  0
 17 18  1  0
 18 19  1  0
 19 20  1  0
 20 21  1  0
 21 22  2  0
 22 23  1  0
 23 24  2  0
 24 25  1  0
 25 26  2  0
 26 27  1  0
 13  4  1  0
 27 15  1  0
 12  7  1  0
 27 17  2  0
 26 21  1  0
M  END
>  <AAScore>  (1) 
1460.9269875229993

>  <RootName>  (1) 
./4ZLY/04_DeltaGEst/trajectory_00/rank_00/lead_0036

$$$$
