confid_1
     RDKit          3D

 30 33  0  0  0  0  0  0  0  0999 V2000
   24.6900   26.1200   35.5300 N   0  0  0  0  0  0  0  0  0  0  0  0
   25.6600   25.6700   34.6600 C   0  0  0  0  0  0  0  0  0  0  0  0
   25.2400   25.0100   33.7200 O   0  0  0  0  0  0  0  0  0  0  0  0
   27.0300   26.2200   34.8800 C   0  0  0  0  0  0  0  0  0  0  0  0
   27.3500   26.7300   36.0700 N   0  0  0  0  0  0  0  0  0  0  0  0
   28.5700   27.1800   36.3300 N   0  0  0  0  0  0  0  0  0  0  0  0
   29.5300   27.1100   35.3900 C   0  0  0  0  0  0  0  0  0  0  0  0
   30.8300   27.5700   35.6500 C   0  0  0  0  0  0  0  0  0  0  0  0
   31.8500   27.5400   34.6900 C   0  0  0  0  0  0  0  0  0  0  0  0
   31.5100   27.1200   33.4000 C   0  0  0  0  0  0  0  0  0  0  0  0
   30.2200   26.6300   33.1100 C   0  0  0  0  0  0  0  0  0  0  0  0
   29.2400   26.6600   34.1000 C   0  0  0  0  0  0  0  0  0  0  0  0
   27.9300   26.2600   33.8100 C   0  0  0  0  0  0  0  0  0  0  0  0
   27.5200   25.7100   32.6100 N   0  0  0  0  0  0  0  0  0  0  0  0
   31.1481   28.0632   36.9588 N   0  0  0  0  0  0  0  0  0  0  0  0
   30.7768   29.4382   37.3150 C   0  0  0  0  0  0  0  0  0  0  0  0
   31.4304   29.8716   38.6321 C   0  0  0  0  0  0  0  0  0  0  0  0
   31.2716   28.8233   39.6521 N   0  0  0  0  0  0  0  0  0  0  0  0
   30.8992   29.1572   41.0035 C   0  0  0  0  0  0  0  0  0  0  0  0
   30.1978   28.3466   41.6679 O   0  0  0  0  0  0  0  0  0  0  0  0
   31.3390   30.4194   41.6428 C   0  0  0  0  0  0  0  0  0  0  0  0
   30.4879   31.1106   42.5284 C   0  0  0  0  0  0  0  0  0  0  0  0
   29.2331   30.6568   42.7831 F   0  0  0  0  0  0  0  0  0  0  0  0
   30.9187   32.2942   43.1378 C   0  0  0  0  0  0  0  0  0  0  0  0
   32.1987   32.7922   42.8803 C   0  0  0  0  0  0  0  0  0  0  0  0
   33.0538   32.1070   42.0133 C   0  0  0  0  0  0  0  0  0  0  0  0
   34.2999   32.5856   41.7738 F   0  0  0  0  0  0  0  0  0  0  0  0
   32.6295   30.9240   41.3999 C   0  0  0  0  0  0  0  0  0  0  0  0
   31.4693   27.4085   39.3003 C   0  0  0  0  0  0  0  0  0  0  0  0
   31.9658   27.2476   37.8608 C   0  0  0  0  0  0  0  0  0  0  0  0
  1  2  1  0
  2  3  2  0
  2  4  1  0
  4  5  2  0
  5  6  1  0
  6  7  2  0
  7  8  1  0
  8  9  2  0
  9 10  1  0
 10 11  2  0
 11 12  1  0
 12 13  2  0
 13 14  1  0
  8 15  1  0
 15 16  1  0
 16 17  1  0
 17 18  1  0
 18 19  1  0
 19 20  2  0
 19 21  1  0
 21 22  2  0
 22 23  1  0
 22 24  1  0
 24 25  2  0
 25 26  1  0
 26 27  1  0
 26 28  2  0
 18 29  1  0
 29 30  1  0
 13  4  1  0
 30 15  1  0
 12  7  1  0
 28 21  1  0
M  END
>  <AAScore>  (1) 
37.78326428243097

>  <RootName>  (1) 
./4ZLY/04_DeltaGEst/trajectory_02/rank_01/lead_0162

$$$$
