confid_15
     RDKit          3D

 28 31  0  0  0  0  0  0  0  0999 V2000
   24.4800   26.1000   36.1300 N   0  0  0  0  0  0  0  0  0  0  0  0
   25.2500   26.2500   34.9900 C   0  0  0  0  0  0  0  0  0  0  0  0
   24.7400   25.7600   33.9900 O   0  0  0  0  0  0  0  0  0  0  0  0
   26.5900   26.8900   34.9600 C   0  0  0  0  0  0  0  0  0  0  0  0
   27.0600   27.2400   36.1600 N   0  0  0  0  0  0  0  0  0  0  0  0
   28.3000   27.7100   36.2400 N   0  0  0  0  0  0  0  0  0  0  0  0
   29.0500   27.9600   35.1500 C   0  0  0  0  0  0  0  0  0  0  0  0
   30.3400   28.4900   35.2600 C   0  0  0  0  0  0  0  0  0  0  0  0
   31.1100   28.8200   34.1400 C   0  0  0  0  0  0  0  0  0  0  0  0
   30.5200   28.6700   32.8800 C   0  0  0  0  0  0  0  0  0  0  0  0
   29.2900   28.0200   32.7700 C   0  0  0  0  0  0  0  0  0  0  0  0
   28.5200   27.7100   33.8900 C   0  0  0  0  0  0  0  0  0  0  0  0
   27.2700   27.0800   33.7600 C   0  0  0  0  0  0  0  0  0  0  0  0
   26.7500   26.8800   32.4900 N   0  0  0  0  0  0  0  0  0  0  0  0
   23.3553   25.2034   36.2437 C   0  0  0  0  0  0  0  0  0  0  0  0
   23.4232   23.9859   35.6508 N   0  0  0  0  0  0  0  0  0  0  0  0
   22.4382   23.0683   35.7597 C   0  0  0  0  0  0  0  0  0  0  0  0
   21.2873   23.3260   36.5199 C   0  0  0  0  0  0  0  0  0  0  0  0
   20.2943   22.1853   36.6376 C   0  0  0  0  0  0  0  0  0  0  0  0
   18.9247   22.6295   36.3726 N   0  0  0  0  0  0  0  0  0  0  0  0
   18.2292   23.3746   37.3778 C   0  0  0  0  0  0  0  0  0  0  0  0
   16.9890   23.5857   37.2741 O   0  0  0  0  0  0  0  0  0  0  0  0
   18.9871   23.9523   38.5291 C   0  0  0  0  0  0  0  0  0  0  0  0
   19.9637   25.0188   38.0353 C   0  0  0  0  0  0  0  0  0  0  0  0
   21.1697   24.5915   37.1849 C   0  0  0  0  0  0  0  0  0  0  0  0
   22.2072   25.5576   36.9882 C   0  0  0  0  0  0  0  0  0  0  0  0
   22.1150   26.9538   37.5797 C   0  0  0  0  0  0  0  0  0  0  0  0
   18.2556   22.2979   35.1130 C   0  0  0  0  0  0  0  0  0  0  0  0
  1  2  1  0
  2  3  2  0
  2  4  1  0
  4  5  2  0
  5  6  1  0
  6  7  2  0
  7  8  1  0
  8  9  2  0
  9 10  1  0
 10 11  2  0
 11 12  1  0
 12 13  2  0
 13 14  1  0
  1 15  1  0
 15 16  2  0
 16 17  1  0
 17 18  2  0
 18 19  1  0
 19 20  1  0
 20 21  1  0
 21 22  2  0
 21 23  1  0
 23 24  1  0
 24 25  1  0
 25 26  2  0
 26 27  1  0
 20 28  1  0
 13  4  1  0
 26 15  1  0
 12  7  1  0
 25 18  1  0
M  END
>  <AAScore>  (1) 
554.6508725794685

>  <RootName>  (1) 
./4ZLY/04_DeltaGEst/trajectory_00/rank_00/lead_0320

$$$$
