confid_2
     RDKit          3D

 29 33  0  0  0  0  0  0  0  0999 V2000
   24.4800   26.1000   36.1300 N   0  0  0  0  0  0  0  0  0  0  0  0
   25.2500   26.2500   34.9900 C   0  0  0  0  0  0  0  0  0  0  0  0
   24.7400   25.7600   33.9900 O   0  0  0  0  0  0  0  0  0  0  0  0
   26.5900   26.8900   34.9600 C   0  0  0  0  0  0  0  0  0  0  0  0
   27.0600   27.2400   36.1600 N   0  0  0  0  0  0  0  0  0  0  0  0
   28.3000   27.7100   36.2400 N   0  0  0  0  0  0  0  0  0  0  0  0
   29.0500   27.9600   35.1500 C   0  0  0  0  0  0  0  0  0  0  0  0
   30.3400   28.4900   35.2600 C   0  0  0  0  0  0  0  0  0  0  0  0
   31.1100   28.8200   34.1400 C   0  0  0  0  0  0  0  0  0  0  0  0
   30.5200   28.6700   32.8800 C   0  0  0  0  0  0  0  0  0  0  0  0
   29.2900   28.0200   32.7700 C   0  0  0  0  0  0  0  0  0  0  0  0
   28.5200   27.7100   33.8900 C   0  0  0  0  0  0  0  0  0  0  0  0
   27.2700   27.0800   33.7600 C   0  0  0  0  0  0  0  0  0  0  0  0
   26.7500   26.8800   32.4900 N   0  0  0  0  0  0  0  0  0  0  0  0
   23.4650   25.1001   36.3316 C   0  0  0  0  0  0  0  0  0  0  0  0
   22.3916   25.4057   37.1529 N   0  0  0  0  0  0  0  0  0  0  0  0
   21.3762   24.5291   37.4418 C   0  0  0  0  0  0  0  0  0  0  0  0
   21.4733   23.2815   36.8723 C   0  0  0  0  0  0  0  0  0  0  0  0
   20.8714   21.9229   36.7092 C   0  0  1  0  0  0  0  0  0  0  0  0
   19.4967   21.9964   35.9885 C   0  0  0  0  0  0  0  0  0  0  0  0
   18.6662   20.7742   36.0822 N   0  0  0  0  0  0  0  0  0  0  0  0
   18.0950   20.5221   37.4052 C   0  0  0  0  0  0  0  0  0  0  0  0
   17.8912   19.1355   37.5726 O   0  0  0  0  0  0  0  0  0  0  0  0
   18.5257   18.4845   36.4964 C   0  0  1  0  0  0  0  0  0  0  0  0
   17.4696   17.7958   35.6292 C   0  0  0  0  0  0  0  0  0  0  0  0
   19.3059   19.5271   35.7172 C   0  0  0  0  0  0  0  0  0  0  0  0
   22.0052   21.5592   35.8599 C   0  0  0  0  0  0  0  0  0  0  0  0
   22.5622   22.9285   36.0444 C   0  0  0  0  0  0  0  0  0  0  0  0
   23.5874   23.8022   35.7508 C   0  0  0  0  0  0  0  0  0  0  0  0
  1  2  1  0
  2  3  2  0
  2  4  1  0
  4  5  2  0
  5  6  1  0
  6  7  2  0
  7  8  1  0
  8  9  2  0
  9 10  1  0
 10 11  2  0
 11 12  1  0
 12 13  2  0
 13 14  1  0
  1 15  1  0
 15 16  2  0
 16 17  1  0
 17 18  2  0
 18 19  1  0
 19 20  1  6
 20 21  1  0
 21 22  1  0
 22 23  1  0
 23 24  1  0
 24 25  1  6
 24 26  1  0
 19 27  1  0
 27 28  1  0
 28 29  2  0
 13  4  1  0
 29 15  1  0
 12  7  1  0
 28 18  1  0
 26 21  1  0
M  END
>  <AAScore>  (1) 
511.5690417798728

>  <RootName>  (1) 
./4ZLY/04_DeltaGEst/trajectory_00/rank_00/lead_0487

$$$$
