confid_3
     RDKit          3D

 27 30  0  0  0  0  0  0  0  0999 V2000
   24.6900   26.1200   35.5300 N   0  0  0  0  0  0  0  0  0  0  0  0
   25.6600   25.6700   34.6600 C   0  0  0  0  0  0  0  0  0  0  0  0
   25.2400   25.0100   33.7200 O   0  0  0  0  0  0  0  0  0  0  0  0
   27.0300   26.2200   34.8800 C   0  0  0  0  0  0  0  0  0  0  0  0
   27.3500   26.7300   36.0700 N   0  0  0  0  0  0  0  0  0  0  0  0
   28.5700   27.1800   36.3300 N   0  0  0  0  0  0  0  0  0  0  0  0
   29.5300   27.1100   35.3900 C   0  0  0  0  0  0  0  0  0  0  0  0
   30.8300   27.5700   35.6500 C   0  0  0  0  0  0  0  0  0  0  0  0
   31.8500   27.5400   34.6900 C   0  0  0  0  0  0  0  0  0  0  0  0
   31.5100   27.1200   33.4000 C   0  0  0  0  0  0  0  0  0  0  0  0
   30.2200   26.6300   33.1100 C   0  0  0  0  0  0  0  0  0  0  0  0
   29.2400   26.6600   34.1000 C   0  0  0  0  0  0  0  0  0  0  0  0
   27.9300   26.2600   33.8100 C   0  0  0  0  0  0  0  0  0  0  0  0
   27.5200   25.7100   32.6100 N   0  0  0  0  0  0  0  0  0  0  0  0
   31.1799   28.0755   36.9989 C   0  0  0  0  0  0  0  0  0  0  0  0
   31.5981   29.4143   37.1428 C   0  0  0  0  0  0  0  0  0  0  0  0
   31.9184   29.8738   38.4154 C   0  0  0  0  0  0  0  0  0  0  0  0
   32.3608   31.1718   38.8576 C   0  0  0  0  0  0  0  0  0  0  0  0
   32.5478   32.1800   38.1259 O   0  0  0  0  0  0  0  0  0  0  0  0
   32.5597   31.1502   40.2663 N   0  0  0  0  0  0  0  0  0  0  0  0
   32.2429   29.8103   40.7689 C   0  0  0  0  0  0  0  0  0  0  0  0
   31.8438   29.0648   39.5257 C   0  0  0  0  0  0  0  0  0  0  0  0
   31.4447   27.7346   39.4143 C   0  0  0  0  0  0  0  0  0  0  0  0
   31.1128   27.2233   38.1359 C   0  0  0  0  0  0  0  0  0  0  0  0
   30.7280   25.8843   37.9562 O   0  0  0  0  0  0  0  0  0  0  0  0
   30.6033   24.9322   39.0070 C   0  0  0  0  0  0  0  0  0  0  0  0
   33.0059   32.2756   41.0766 C   0  0  0  0  0  0  0  0  0  0  0  0
  1  2  1  0
  2  3  2  0
  2  4  1  0
  4  5  2  0
  5  6  1  0
  6  7  2  0
  7  8  1  0
  8  9  2  0
  9 10  1  0
 10 11  2  0
 11 12  1  0
 12 13  2  0
 13 14  1  0
  8 15  1  0
 15 16  2  0
 16 17  1  0
 17 18  1  0
 18 19  2  0
 18 20  1  0
 20 21  1  0
 21 22  1  0
 22 23  1  0
 23 24  2  0
 24 25  1  0
 25 26  1  0
 20 27  1  0
 13  4  1  0
 24 15  1  0
 12  7  1  0
 22 17  2  0
M  END
>  <AAScore>  (1) 
114.39963002877876

>  <RootName>  (1) 
./4ZLY/04_DeltaGEst/trajectory_02/rank_01/lead_0346

$$$$
