confid_10
     RDKit          3D

 29 33  0  0  0  0  0  0  0  0999 V2000
   24.5500   26.3900   36.2500 N   0  0  0  0  0  0  0  0  0  0  0  0
   25.6000   26.1300   35.4000 C   0  0  0  0  0  0  0  0  0  0  0  0
   25.4300   25.4300   34.4200 O   0  0  0  0  0  0  0  0  0  0  0  0
   26.9800   26.6300   35.7100 C   0  0  0  0  0  0  0  0  0  0  0  0
   27.3200   26.8200   36.9800 N   0  0  0  0  0  0  0  0  0  0  0  0
   28.4700   27.4000   37.3100 N   0  0  0  0  0  0  0  0  0  0  0  0
   29.4000   27.6300   36.3700 C   0  0  0  0  0  0  0  0  0  0  0  0
   30.6600   28.0500   36.8000 C   0  0  0  0  0  0  0  0  0  0  0  0
   31.5700   28.3600   35.7800 C   0  0  0  0  0  0  0  0  0  0  0  0
   31.3700   28.1000   34.4300 C   0  0  0  0  0  0  0  0  0  0  0  0
   30.1200   27.5900   34.0500 C   0  0  0  0  0  0  0  0  0  0  0  0
   29.1500   27.3400   35.0300 C   0  0  0  0  0  0  0  0  0  0  0  0
   27.8800   26.8900   34.6600 C   0  0  0  0  0  0  0  0  0  0  0  0
   27.4800   26.6100   33.3700 N   0  0  0  0  0  0  0  0  0  0  0  0
   23.2581   25.7816   36.1088 C   0  0  0  0  0  0  0  0  0  0  0  0
   22.2155   26.5522   36.2878 N   0  0  0  0  0  0  0  0  0  0  0  0
   20.7875   26.3923   36.2032 C   0  0  0  0  0  0  0  0  0  0  0  0
   20.1808   25.4997   35.4294 C   0  0  0  0  0  0  0  0  0  0  0  0
   18.9366   25.4939   34.5834 C   0  0  0  0  0  0  0  0  0  0  0  0
   19.2893   24.3627   33.8524 O   0  0  0  0  0  0  0  0  0  0  0  0
   20.3959   24.2217   34.6825 C   0  0  1  0  0  0  0  0  0  0  0  0
   21.7340   24.1957   33.9467 C   0  0  0  0  0  0  0  0  0  0  0  0
   22.7216   23.5876   34.9021 C   0  0  0  0  0  0  0  0  0  0  0  0
   22.9520   22.2013   34.8369 C   0  0  0  0  0  0  0  0  0  0  0  0
   23.6864   21.5558   35.8314 C   0  0  0  0  0  0  0  0  0  0  0  0
   24.1697   22.2937   36.9110 C   0  0  0  0  0  0  0  0  0  0  0  0
   24.9664   21.6315   37.9893 C   0  0  0  0  0  0  0  0  0  0  0  0
   23.9520   23.6341   36.9542 N   0  0  0  0  0  0  0  0  0  0  0  0
   23.2255   24.3025   36.0161 C   0  0  0  0  0  0  0  0  0  0  0  0
  1  2  1  0
  2  3  2  0
  2  4  1  0
  4  5  2  0
  5  6  1  0
  6  7  2  0
  7  8  1  0
  8  9  2  0
  9 10  1  0
 10 11  2  0
 11 12  1  0
 12 13  2  0
 13 14  1  0
  1 15  1  0
 15 16  2  0
 16 17  1  0
 17 18  2  0
 18 19  1  0
 19 20  1  0
 20 21  1  0
 21 22  1  6
 22 23  1  0
 23 24  2  0
 24 25  1  0
 25 26  2  0
 26 27  1  0
 26 28  1  0
 28 29  2  0
 13  4  1  0
 29 15  1  0
 12  7  1  0
 21 18  1  0
 29 23  1  0
M  END
>  <AAScore>  (1) 
2402.4939384067507

>  <RootName>  (1) 
./4ZLY/04_DeltaGEst/trajectory_01/rank_00/lead_0496

$$$$
