confid_16
     RDKit          3D

 28 30  0  0  0  0  0  0  0  0999 V2000
   24.5700   26.8800   35.5900 N   0  0  0  0  0  0  0  0  0  0  0  0
   25.5000   26.4000   34.6900 C   0  0  0  0  0  0  0  0  0  0  0  0
   25.1700   25.5200   33.9100 O   0  0  0  0  0  0  0  0  0  0  0  0
   26.8400   27.0200   34.7400 C   0  0  0  0  0  0  0  0  0  0  0  0
   27.3800   27.2800   35.9400 N   0  0  0  0  0  0  0  0  0  0  0  0
   28.6200   27.7400   36.0300 N   0  0  0  0  0  0  0  0  0  0  0  0
   29.3800   28.0000   34.9600 C   0  0  0  0  0  0  0  0  0  0  0  0
   30.6700   28.5000   35.1300 C   0  0  0  0  0  0  0  0  0  0  0  0
   31.5400   28.6100   34.0300 C   0  0  0  0  0  0  0  0  0  0  0  0
   31.0900   28.2200   32.7700 C   0  0  0  0  0  0  0  0  0  0  0  0
   29.8000   27.7000   32.6000 C   0  0  0  0  0  0  0  0  0  0  0  0
   28.9600   27.5500   33.7100 C   0  0  0  0  0  0  0  0  0  0  0  0
   27.6600   27.0300   33.5900 C   0  0  0  0  0  0  0  0  0  0  0  0
   27.1600   26.7400   32.3400 N   0  0  0  0  0  0  0  0  0  0  0  0
   33.1619   29.2634   34.2256 S   0  0  0  0  0  6  0  0  0  0  0  0
   33.5834   29.1646   35.6652 O   0  0  0  0  0  0  0  0  0  0  0  0
   34.1235   28.4681   33.3876 O   0  0  0  0  0  0  0  0  0  0  0  0
   33.1598   30.9762   33.7200 C   0  0  0  0  0  0  0  0  0  0  0  0
   34.5710   31.5092   33.6381 C   0  0  0  0  0  0  0  0  0  0  0  0
   35.3095   31.5218   32.4263 C   0  0  0  0  0  0  0  0  0  0  0  0
   34.6963   31.0547   31.1286 C   0  0  0  0  0  0  0  0  0  0  0  0
   36.6257   32.0248   32.4298 C   0  0  0  0  0  0  0  0  0  0  0  0
   37.2104   32.4805   33.6141 C   0  0  0  0  0  0  0  0  0  0  0  0
   38.4864   32.9439   33.5908 F   0  0  0  0  0  0  0  0  0  0  0  0
   36.4886   32.4593   34.8142 C   0  0  0  0  0  0  0  0  0  0  0  0
   37.1319   32.9205   36.0906 C   0  0  0  0  0  0  0  0  0  0  0  0
   35.1786   31.9632   34.8210 C   0  0  0  0  0  0  0  0  0  0  0  0
   37.3522   32.0741   31.2836 F   0  0  0  0  0  0  0  0  0  0  0  0
  1  2  1  0
  2  3  2  0
  2  4  1  0
  4  5  2  0
  5  6  1  0
  6  7  2  0
  7  8  1  0
  8  9  2  0
  9 10  1  0
 10 11  2  0
 11 12  1  0
 12 13  2  0
 13 14  1  0
  9 15  1  0
 15 16  2  0
 15 17  2  0
 15 18  1  0
 18 19  1  0
 19 20  2  0
 20 21  1  0
 20 22  1  0
 22 23  2  0
 23 24  1  0
 23 25  1  0
 25 26  1  0
 25 27  2  0
 22 28  1  0
 13  4  1  0
 27 19  1  0
 12  7  1  0
M  END
>  <AAScore>  (1) 
-5.383974049318776

>  <RootName>  (1) 
./4ZLY/04_DeltaGEst/trajectory_05/rank_01/lead_0422

$$$$
