confid_9
     RDKit          3D

 29 32  0  0  0  0  0  0  0  0999 V2000
   24.5500   26.3900   36.2500 N   0  0  0  0  0  0  0  0  0  0  0  0
   25.6000   26.1300   35.4000 C   0  0  0  0  0  0  0  0  0  0  0  0
   25.4300   25.4300   34.4200 O   0  0  0  0  0  0  0  0  0  0  0  0
   26.9800   26.6300   35.7100 C   0  0  0  0  0  0  0  0  0  0  0  0
   27.3200   26.8200   36.9800 N   0  0  0  0  0  0  0  0  0  0  0  0
   28.4700   27.4000   37.3100 N   0  0  0  0  0  0  0  0  0  0  0  0
   29.4000   27.6300   36.3700 C   0  0  0  0  0  0  0  0  0  0  0  0
   30.6600   28.0500   36.8000 C   0  0  0  0  0  0  0  0  0  0  0  0
   31.5700   28.3600   35.7800 C   0  0  0  0  0  0  0  0  0  0  0  0
   31.3700   28.1000   34.4300 C   0  0  0  0  0  0  0  0  0  0  0  0
   30.1200   27.5900   34.0500 C   0  0  0  0  0  0  0  0  0  0  0  0
   29.1500   27.3400   35.0300 C   0  0  0  0  0  0  0  0  0  0  0  0
   27.8800   26.8900   34.6600 C   0  0  0  0  0  0  0  0  0  0  0  0
   27.4800   26.6100   33.3700 N   0  0  0  0  0  0  0  0  0  0  0  0
   30.9982   28.2769   38.2306 C   0  0  0  0  0  0  0  0  0  0  0  0
   30.9221   27.0832   39.1009 C   0  0  0  0  0  0  0  0  0  0  0  0
   31.1087   27.0288   40.4151 C   0  0  0  0  0  0  0  0  0  0  0  0
   30.9573   25.7826   41.2271 C   0  0  0  0  0  0  0  0  0  0  0  0
   31.2364   26.2723   42.5699 N   0  0  0  0  0  0  0  0  0  0  0  0
   31.2337   25.4908   43.7718 C   0  0  0  0  0  0  0  0  0  0  0  0
   31.4994   26.0425   44.8732 O   0  0  0  0  0  0  0  0  0  0  0  0
   30.8965   24.0268   43.7463 C   0  0  0  0  0  0  0  0  0  0  0  0
   29.5388   23.8350   43.4001 O   0  0  0  0  0  0  0  0  0  0  0  0
   28.7276   23.8959   44.5531 C   0  0  0  0  0  0  0  0  0  0  0  0
   31.5345   27.6382   42.5528 N   0  0  0  0  0  0  0  0  0  0  0  0
   31.4634   28.0866   41.3468 C   0  0  0  0  0  0  0  0  0  0  0  0
   31.7699   29.4430   41.0475 N   0  0  0  0  0  0  0  0  0  0  0  0
   31.7433   30.0666   39.9121 C   0  0  0  0  0  0  0  0  0  0  0  0
   31.3491   29.5252   38.5958 C   0  0  0  0  0  0  0  0  0  0  0  0
  1  2  1  0
  2  3  2  0
  2  4  1  0
  4  5  2  0
  5  6  1  0
  6  7  2  0
  7  8  1  0
  8  9  2  0
  9 10  1  0
 10 11  2  0
 11 12  1  0
 12 13  2  0
 13 14  1  0
  8 15  1  0
 15 16  1  0
 16 17  2  0
 17 18  1  0
 18 19  1  0
 19 20  1  0
 20 21  2  0
 20 22  1  0
 22 23  1  0
 23 24  1  0
 19 25  1  0
 25 26  2  0
 26 27  1  0
 27 28  2  0
 28 29  1  0
 13  4  1  0
 29 15  2  0
 12  7  1  0
 26 17  1  0
M  END
>  <AAScore>  (1) 
35.92988228277123

>  <RootName>  (1) 
./4ZLY/04_DeltaGEst/trajectory_01/rank_01/lead_0196

$$$$
