confid_14
     RDKit          3D

 27 30  0  0  0  0  0  0  0  0999 V2000
   24.6900   26.1200   35.5300 N   0  0  0  0  0  0  0  0  0  0  0  0
   25.6600   25.6700   34.6600 C   0  0  0  0  0  0  0  0  0  0  0  0
   25.2400   25.0100   33.7200 O   0  0  0  0  0  0  0  0  0  0  0  0
   27.0300   26.2200   34.8800 C   0  0  0  0  0  0  0  0  0  0  0  0
   27.3500   26.7300   36.0700 N   0  0  0  0  0  0  0  0  0  0  0  0
   28.5700   27.1800   36.3300 N   0  0  0  0  0  0  0  0  0  0  0  0
   29.5300   27.1100   35.3900 C   0  0  0  0  0  0  0  0  0  0  0  0
   30.8300   27.5700   35.6500 C   0  0  0  0  0  0  0  0  0  0  0  0
   31.8500   27.5400   34.6900 C   0  0  0  0  0  0  0  0  0  0  0  0
   31.5100   27.1200   33.4000 C   0  0  0  0  0  0  0  0  0  0  0  0
   30.2200   26.6300   33.1100 C   0  0  0  0  0  0  0  0  0  0  0  0
   29.2400   26.6600   34.1000 C   0  0  0  0  0  0  0  0  0  0  0  0
   27.9300   26.2600   33.8100 C   0  0  0  0  0  0  0  0  0  0  0  0
   27.5200   25.7100   32.6100 N   0  0  0  0  0  0  0  0  0  0  0  0
   23.3118   26.3433   35.1790 C   0  0  0  0  0  0  0  0  0  0  0  0
   22.3532   26.1758   36.1284 N   0  0  0  0  0  0  0  0  0  0  0  0
   21.0359   26.3894   35.8734 C   0  0  0  0  0  0  0  0  0  0  0  0
   20.6165   26.8135   34.6032 C   0  0  0  0  0  0  0  0  0  0  0  0
   19.1529   27.0937   34.3597 C   0  0  0  0  0  0  0  0  0  0  0  0
   18.4070   25.8421   33.8689 C   0  0  0  0  0  0  0  0  0  0  0  0
   18.3822   25.7586   32.3912 N   0  0  0  0  0  0  0  0  0  0  0  0
   17.4298   24.7158   31.9746 C   0  0  0  0  0  0  0  0  0  0  0  0
   19.7225   25.4853   31.8284 C   0  0  0  0  0  0  0  0  0  0  0  0
   20.4015   26.7805   31.4771 C   0  0  0  0  0  0  0  0  0  0  0  0
   21.2405   27.3876   32.2643 N   0  0  0  0  0  0  0  0  0  0  0  0
   21.5883   26.9743   33.5928 C   0  0  0  0  0  0  0  0  0  0  0  0
   22.9383   26.7726   33.8950 C   0  0  0  0  0  0  0  0  0  0  0  0
  1  2  1  0
  2  3  2  0
  2  4  1  0
  4  5  2  0
  5  6  1  0
  6  7  2  0
  7  8  1  0
  8  9  2  0
  9 10  1  0
 10 11  2  0
 11 12  1  0
 12 13  2  0
 13 14  1  0
  1 15  1  0
 15 16  2  0
 16 17  1  0
 17 18  2  0
 18 19  1  0
 19 20  1  0
 20 21  1  0
 21 22  1  0
 21 23  1  0
 23 24  1  0
 24 25  2  0
 25 26  1  0
 26 27  2  0
 13  4  1  0
 27 15  1  0
 12  7  1  0
 26 18  1  0
M  END
>  <AAScore>  (1) 
8528.634376861737

>  <RootName>  (1) 
./4ZLY/04_DeltaGEst/trajectory_02/rank_00/lead_0454

$$$$
