confid_15
     RDKit          3D

 30 33  0  0  0  0  0  0  0  0999 V2000
   24.5500   26.3900   36.2500 N   0  0  0  0  0  0  0  0  0  0  0  0
   25.6000   26.1300   35.4000 C   0  0  0  0  0  0  0  0  0  0  0  0
   25.4300   25.4300   34.4200 O   0  0  0  0  0  0  0  0  0  0  0  0
   26.9800   26.6300   35.7100 C   0  0  0  0  0  0  0  0  0  0  0  0
   27.3200   26.8200   36.9800 N   0  0  0  0  0  0  0  0  0  0  0  0
   28.4700   27.4000   37.3100 N   0  0  0  0  0  0  0  0  0  0  0  0
   29.4000   27.6300   36.3700 C   0  0  0  0  0  0  0  0  0  0  0  0
   30.6600   28.0500   36.8000 C   0  0  0  0  0  0  0  0  0  0  0  0
   31.5700   28.3600   35.7800 C   0  0  0  0  0  0  0  0  0  0  0  0
   31.3700   28.1000   34.4300 C   0  0  0  0  0  0  0  0  0  0  0  0
   30.1200   27.5900   34.0500 C   0  0  0  0  0  0  0  0  0  0  0  0
   29.1500   27.3400   35.0300 C   0  0  0  0  0  0  0  0  0  0  0  0
   27.8800   26.8900   34.6600 C   0  0  0  0  0  0  0  0  0  0  0  0
   27.4800   26.6100   33.3700 N   0  0  0  0  0  0  0  0  0  0  0  0
   31.0020   28.2831   38.2236 C   0  0  0  0  0  0  0  0  0  0  0  0
   30.8805   27.2477   39.1551 C   0  0  0  0  0  0  0  0  0  0  0  0
   31.2249   27.4468   40.4995 C   0  0  0  0  0  0  0  0  0  0  0  0
   31.0266   26.3129   41.4781 C   0  0  0  0  0  0  0  0  0  0  0  0
   29.8063   26.5811   42.3710 C   0  0  0  0  0  0  0  0  0  0  0  0
   29.8195   27.9607   42.8832 N   0  0  0  0  0  0  0  0  0  0  0  0
   31.0686   28.4732   43.4653 C   0  0  0  0  0  0  0  0  0  0  0  0
   32.0699   28.9669   42.3903 C   0  0  0  0  0  0  0  0  0  0  0  0
   31.6649   28.7262   40.9360 C   0  0  0  0  0  0  0  0  0  0  0  0
   31.8008   29.7690   39.9886 C   0  0  0  0  0  0  0  0  0  0  0  0
   32.2674   31.0255   40.4133 O   0  0  0  0  0  0  0  0  0  0  0  0
   32.4264   32.1625   39.5710 C   0  0  0  0  0  0  0  0  0  0  0  0
   31.4692   29.5339   38.6410 C   0  0  0  0  0  0  0  0  0  0  0  0
   28.6450   28.7948   42.7721 C   0  0  0  0  0  0  0  0  0  0  0  0
   27.5104   28.2674   42.6154 O   0  0  0  0  0  0  0  0  0  0  0  0
   28.7368   30.2890   42.8458 C   0  0  0  0  0  0  0  0  0  0  0  0
  1  2  1  0
  2  3  2  0
  2  4  1  0
  4  5  2  0
  5  6  1  0
  6  7  2  0
  7  8  1  0
  8  9  2  0
  9 10  1  0
 10 11  2  0
 11 12  1  0
 12 13  2  0
 13 14  1  0
  8 15  1  0
 15 16  2  0
 16 17  1  0
 17 18  1  0
 18 19  1  0
 19 20  1  0
 20 21  1  0
 21 22  1  0
 22 23  1  0
 23 24  1  0
 24 25  1  0
 25 26  1  0
 24 27  2  0
 20 28  1  0
 28 29  2  0
 28 30  1  0
 13  4  1  0
 27 15  1  0
 12  7  1  0
 23 17  2  0
M  END
>  <AAScore>  (1) 
33.67085719405749

>  <RootName>  (1) 
./4ZLY/04_DeltaGEst/trajectory_01/rank_01/lead_0066

$$$$
