confid_10
     RDKit          3D

 27 30  0  0  0  0  0  0  0  0999 V2000
   24.6900   26.1200   35.5300 N   0  0  0  0  0  0  0  0  0  0  0  0
   25.6600   25.6700   34.6600 C   0  0  0  0  0  0  0  0  0  0  0  0
   25.2400   25.0100   33.7200 O   0  0  0  0  0  0  0  0  0  0  0  0
   27.0300   26.2200   34.8800 C   0  0  0  0  0  0  0  0  0  0  0  0
   27.3500   26.7300   36.0700 N   0  0  0  0  0  0  0  0  0  0  0  0
   28.5700   27.1800   36.3300 N   0  0  0  0  0  0  0  0  0  0  0  0
   29.5300   27.1100   35.3900 C   0  0  0  0  0  0  0  0  0  0  0  0
   30.8300   27.5700   35.6500 C   0  0  0  0  0  0  0  0  0  0  0  0
   31.8500   27.5400   34.6900 C   0  0  0  0  0  0  0  0  0  0  0  0
   31.5100   27.1200   33.4000 C   0  0  0  0  0  0  0  0  0  0  0  0
   30.2200   26.6300   33.1100 C   0  0  0  0  0  0  0  0  0  0  0  0
   29.2400   26.6600   34.1000 C   0  0  0  0  0  0  0  0  0  0  0  0
   27.9300   26.2600   33.8100 C   0  0  0  0  0  0  0  0  0  0  0  0
   27.5200   25.7100   32.6100 N   0  0  0  0  0  0  0  0  0  0  0  0
   31.1833   28.0731   37.0011 C   0  0  0  0  0  0  0  0  0  0  0  0
   30.9788   27.2731   38.1373 C   0  0  0  0  0  0  0  0  0  0  0  0
   31.3122   27.7467   39.4173 C   0  0  0  0  0  0  0  0  0  0  0  0
   31.0738   26.8805   40.6314 C   0  0  0  0  0  0  0  0  0  0  0  0
   30.1052   27.5079   41.5999 C   0  0  0  0  0  0  0  0  0  0  0  0
   29.4988   26.7531   42.4076 O   0  0  0  0  0  0  0  0  0  0  0  0
   29.8311   28.9262   41.6140 N   0  0  0  0  0  0  0  0  0  0  0  0
   28.4443   29.3458   41.8341 C   0  0  0  0  0  0  0  0  0  0  0  0
   30.8925   29.9512   41.6765 C   0  0  0  0  0  0  0  0  0  0  0  0
   32.1785   29.5777   40.9282 C   0  0  0  0  0  0  0  0  0  0  0  0
   31.8719   29.0334   39.5576 C   0  0  0  0  0  0  0  0  0  0  0  0
   32.0744   29.8305   38.4208 C   0  0  0  0  0  0  0  0  0  0  0  0
   31.7407   29.3513   37.1530 C   0  0  0  0  0  0  0  0  0  0  0  0
  1  2  1  0
  2  3  2  0
  2  4  1  0
  4  5  2  0
  5  6  1  0
  6  7  2  0
  7  8  1  0
  8  9  2  0
  9 10  1  0
 10 11  2  0
 11 12  1  0
 12 13  2  0
 13 14  1  0
  8 15  1  0
 15 16  2  0
 16 17  1  0
 17 18  1  0
 18 19  1  0
 19 20  2  0
 19 21  1  0
 21 22  1  0
 21 23  1  0
 23 24  1  0
 24 25  1  0
 25 26  1  0
 26 27  2  0
 13  4  1  0
 27 15  1  0
 12  7  1  0
 25 17  2  0
M  END
>  <AAScore>  (1) 
1.4655090097312384

>  <RootName>  (1) 
./4ZLY/04_DeltaGEst/trajectory_02/rank_01/lead_0153

$$$$
