confid_5
     RDKit          3D

 29 33  0  0  0  0  0  0  0  0999 V2000
   25.3300   26.2600   34.7600 N   0  0  0  0  0  0  0  0  0  0  0  0
   26.1200   25.9200   33.6900 C   0  0  0  0  0  0  0  0  0  0  0  0
   25.6300   25.1100   32.9400 O   0  0  0  0  0  0  0  0  0  0  0  0
   27.5200   26.3800   33.4600 C   0  0  0  0  0  0  0  0  0  0  0  0
   28.1600   26.6300   34.6100 N   0  0  0  0  0  0  0  0  0  0  0  0
   29.4800   26.8500   34.5700 N   0  0  0  0  0  0  0  0  0  0  0  0
   30.1900   26.7800   33.4400 C   0  0  0  0  0  0  0  0  0  0  0  0
   31.5600   27.0500   33.5000 C   0  0  0  0  0  0  0  0  0  0  0  0
   32.2700   27.2400   32.3100 C   0  0  0  0  0  0  0  0  0  0  0  0
   31.6100   27.2500   31.0800 C   0  0  0  0  0  0  0  0  0  0  0  0
   30.2700   26.8700   31.0600 C   0  0  0  0  0  0  0  0  0  0  0  0
   29.5100   26.6900   32.2300 C   0  0  0  0  0  0  0  0  0  0  0  0
   28.1400   26.4100   32.2000 C   0  0  0  0  0  0  0  0  0  0  0  0
   27.4300   26.1300   31.0500 N   0  0  0  0  0  0  0  0  0  0  0  0
   26.5048   27.1308   30.5098 C   0  0  0  0  0  0  0  0  0  0  0  0
   25.9356   26.6691   29.1698 C   0  0  0  0  0  0  0  0  0  0  0  0
   27.0384   26.1870   28.3203 N   0  0  0  0  0  0  0  0  0  0  0  0
   26.5693   25.9821   26.9340 C   0  0  0  0  0  0  0  0  0  0  0  0
   27.7353   25.8237   25.9950 C   0  0  0  0  0  0  0  0  0  0  0  0
   28.4902   26.9508   25.5975 C   0  0  0  0  0  0  0  0  0  0  0  0
   29.5473   26.8083   24.7471 N   0  0  0  0  0  0  0  0  0  0  0  0
   29.8905   25.5762   24.2879 C   0  0  0  0  0  0  0  0  0  0  0  0
   30.9991   25.2812   23.3564 C   0  0  0  0  0  0  0  0  0  0  0  0
   30.9901   23.7406   23.2614 C   0  0  0  0  0  0  0  0  0  0  0  0
   29.7677   23.2300   24.0530 C   0  0  0  0  0  0  0  0  0  0  0  0
   29.2043   24.4549   24.6645 C   0  0  0  0  0  0  0  0  0  0  0  0
   28.1112   24.5505   25.5246 C   0  0  0  0  0  0  0  0  0  0  0  0
   27.6738   24.9561   28.8669 C   0  0  0  0  0  0  0  0  0  0  0  0
   27.5724   24.8213   30.4015 C   0  0  0  0  0  0  0  0  0  0  0  0
  1  2  1  0
  2  3  2  0
  2  4  1  0
  4  5  2  0
  5  6  1  0
  6  7  2  0
  7  8  1  0
  8  9  2  0
  9 10  1  0
 10 11  2  0
 11 12  1  0
 12 13  2  0
 13 14  1  0
 14 15  1  0
 15 16  1  0
 16 17  1  0
 17 18  1  0
 18 19  1  0
 19 20  2  0
 20 21  1  0
 21 22  2  0
 22 23  1  0
 23 24  1  0
 24 25  1  0
 25 26  1  0
 26 27  2  0
 17 28  1  0
 28 29  1  0
 13  4  1  0
 29 14  1  0
 12  7  1  0
 27 19  1  0
 26 22  1  0
M  END
>  <AAScore>  (1) 
9.454431911534046

>  <RootName>  (1) 
./4ZLY/04_DeltaGEst/trajectory_03/rank_01/lead_0415

$$$$
