confid_19
     RDKit          3D

 28 31  0  0  0  0  0  0  0  0999 V2000
   24.5700   26.8800   35.5900 N   0  0  0  0  0  0  0  0  0  0  0  0
   25.5000   26.4000   34.6900 C   0  0  0  0  0  0  0  0  0  0  0  0
   25.1700   25.5200   33.9100 O   0  0  0  0  0  0  0  0  0  0  0  0
   26.8400   27.0200   34.7400 C   0  0  0  0  0  0  0  0  0  0  0  0
   27.3800   27.2800   35.9400 N   0  0  0  0  0  0  0  0  0  0  0  0
   28.6200   27.7400   36.0300 N   0  0  0  0  0  0  0  0  0  0  0  0
   29.3800   28.0000   34.9600 C   0  0  0  0  0  0  0  0  0  0  0  0
   30.6700   28.5000   35.1300 C   0  0  0  0  0  0  0  0  0  0  0  0
   31.5400   28.6100   34.0300 C   0  0  0  0  0  0  0  0  0  0  0  0
   31.0900   28.2200   32.7700 C   0  0  0  0  0  0  0  0  0  0  0  0
   29.8000   27.7000   32.6000 C   0  0  0  0  0  0  0  0  0  0  0  0
   28.9600   27.5500   33.7100 C   0  0  0  0  0  0  0  0  0  0  0  0
   27.6600   27.0300   33.5900 C   0  0  0  0  0  0  0  0  0  0  0  0
   27.1600   26.7400   32.3400 N   0  0  0  0  0  0  0  0  0  0  0  0
   23.3917   26.1501   35.9572 C   0  0  0  0  0  0  0  0  0  0  0  0
   22.1655   26.7146   35.9595 N   0  0  0  0  0  0  0  0  0  0  0  0
   21.3485   25.7249   36.3723 C   0  0  0  0  0  0  0  0  0  0  0  0
   22.0944   24.5959   36.6356 C   0  0  0  0  0  0  0  0  0  0  0  0
   21.5498   23.2415   37.0011 C   0  0  0  0  0  0  0  0  0  0  0  0
   21.3609   22.3541   35.8266 N   0  0  0  0  0  0  0  0  0  0  0  0
   22.4679   22.3931   34.8378 C   0  0  0  0  0  0  0  0  0  0  0  0
   23.8345   21.9341   35.4360 C   0  0  1  0  0  0  0  0  0  0  0  0
   24.3470   20.7253   34.6146 C   0  0  0  0  0  0  0  0  0  0  0  0
   24.7935   23.0886   35.4646 N   0  0  0  0  0  0  0  0  0  0  0  0
   26.2129   22.6750   35.4964 C   0  0  0  0  0  0  0  0  0  0  0  0
   24.5392   23.9858   36.6211 C   0  0  0  0  0  0  0  0  0  0  0  0
   23.3880   24.8616   36.3739 N   0  0  0  0  0  0  0  0  0  0  0  0
   20.0788   22.6422   35.1597 C   0  0  0  0  0  0  0  0  0  0  0  0
  1  2  1  0
  2  3  2  0
  2  4  1  0
  4  5  2  0
  5  6  1  0
  6  7  2  0
  7  8  1  0
  8  9  2  0
  9 10  1  0
 10 11  2  0
 11 12  1  0
 12 13  2  0
 13 14  1  0
  1 15  1  0
 15 16  2  0
 16 17  1  0
 17 18  2  0
 18 19  1  0
 19 20  1  0
 20 21  1  0
 21 22  1  0
 22 23  1  6
 22 24  1  0
 24 25  1  0
 24 26  1  0
 26 27  1  0
 20 28  1  0
 13  4  1  0
 27 15  1  0
 12  7  1  0
 27 18  1  0
M  END
>  <AAScore>  (1) 
2010.5828981963869

>  <RootName>  (1) 
./4ZLY/04_DeltaGEst/trajectory_05/rank_00/lead_0269

$$$$
