confid_0
     RDKit          3D

 27 31  0  0  0  0  0  0  0  0999 V2000
   24.5500   26.3900   36.2500 N   0  0  0  0  0  0  0  0  0  0  0  0
   25.6000   26.1300   35.4000 C   0  0  0  0  0  0  0  0  0  0  0  0
   25.4300   25.4300   34.4200 O   0  0  0  0  0  0  0  0  0  0  0  0
   26.9800   26.6300   35.7100 C   0  0  0  0  0  0  0  0  0  0  0  0
   27.3200   26.8200   36.9800 N   0  0  0  0  0  0  0  0  0  0  0  0
   28.4700   27.4000   37.3100 N   0  0  0  0  0  0  0  0  0  0  0  0
   29.4000   27.6300   36.3700 C   0  0  0  0  0  0  0  0  0  0  0  0
   30.6600   28.0500   36.8000 C   0  0  0  0  0  0  0  0  0  0  0  0
   31.5700   28.3600   35.7800 C   0  0  0  0  0  0  0  0  0  0  0  0
   31.3700   28.1000   34.4300 C   0  0  0  0  0  0  0  0  0  0  0  0
   30.1200   27.5900   34.0500 C   0  0  0  0  0  0  0  0  0  0  0  0
   29.1500   27.3400   35.0300 C   0  0  0  0  0  0  0  0  0  0  0  0
   27.8800   26.8900   34.6600 C   0  0  0  0  0  0  0  0  0  0  0  0
   27.4800   26.6100   33.3700 N   0  0  0  0  0  0  0  0  0  0  0  0
   23.1544   26.1792   35.9380 C   0  0  0  0  0  0  0  0  0  0  0  0
   22.8356   25.8745   34.7055 N   0  0  0  0  0  0  0  0  0  0  0  0
   21.6401   25.5437   33.9760 C   0  0  0  0  0  0  0  0  0  0  0  0
   20.5561   24.9912   34.5075 C   0  0  0  0  0  0  0  0  0  0  0  0
   19.5392   23.9800   34.0560 C   0  0  0  0  0  0  0  0  0  0  0  0
   19.0196   23.7499   35.3263 O   0  0  0  0  0  0  0  0  0  0  0  0
   19.8383   24.7693   35.7989 C   0  0  1  0  0  0  0  0  0  0  0  0
   20.7906   24.3510   36.9113 C   0  0  0  0  0  0  0  0  0  0  0  0
   21.2672   25.6235   37.5261 C   0  0  0  0  0  0  0  0  0  0  0  0
   22.1731   26.4533   37.0236 C   0  0  0  0  0  0  0  0  0  0  0  0
   22.2386   27.6833   37.8826 C   0  0  0  0  0  0  0  0  0  0  0  0
   21.1648   27.4399   38.9479 C   0  0  0  0  0  0  0  0  0  0  0  0
   20.6530   26.1555   38.6441 O   0  0  0  0  0  0  0  0  0  0  0  0
  1  2  1  0
  2  3  2  0
  2  4  1  0
  4  5  2  0
  5  6  1  0
  6  7  2  0
  7  8  1  0
  8  9  2  0
  9 10  1  0
 10 11  2  0
 11 12  1  0
 12 13  2  0
 13 14  1  0
  1 15  1  0
 15 16  2  0
 16 17  1  0
 17 18  2  0
 18 19  1  0
 19 20  1  0
 20 21  1  0
 21 22  1  1
 22 23  1  0
 23 24  2  0
 24 25  1  0
 25 26  1  0
 26 27  1  0
 13  4  1  0
 24 15  1  0
 12  7  1  0
 21 18  1  0
 27 23  1  0
M  END
>  <AAScore>  (1) 
1676.0959938643289

>  <RootName>  (1) 
./4ZLY/04_DeltaGEst/trajectory_01/rank_00/lead_0454

$$$$
