confid_17
     RDKit          3D

 29 33  0  0  0  0  0  0  0  0999 V2000
   24.2000   26.2400   35.6900 N   0  0  0  0  0  0  0  0  0  0  0  0
   24.8500   26.2800   34.4800 C   0  0  0  0  0  0  0  0  0  0  0  0
   24.3100   25.7400   33.5400 O   0  0  0  0  0  0  0  0  0  0  0  0
   26.1800   26.9700   34.4700 C   0  0  0  0  0  0  0  0  0  0  0  0
   26.6500   27.6000   35.5500 N   0  0  0  0  0  0  0  0  0  0  0  0
   27.7900   28.2700   35.6200 N   0  0  0  0  0  0  0  0  0  0  0  0
   28.5400   28.3000   34.5100 C   0  0  0  0  0  0  0  0  0  0  0  0
   29.7700   28.9400   34.5600 C   0  0  0  0  0  0  0  0  0  0  0  0
   30.7000   28.8900   33.5000 C   0  0  0  0  0  0  0  0  0  0  0  0
   30.3700   28.1400   32.3700 C   0  0  0  0  0  0  0  0  0  0  0  0
   29.1200   27.5200   32.2800 C   0  0  0  0  0  0  0  0  0  0  0  0
   28.2100   27.6100   33.3300 C   0  0  0  0  0  0  0  0  0  0  0  0
   26.9700   26.9700   33.3100 C   0  0  0  0  0  0  0  0  0  0  0  0
   26.5300   26.2400   32.2200 N   0  0  0  0  0  0  0  0  0  0  0  0
   22.8395   25.7994   35.8457 C   0  0  0  0  0  0  0  0  0  0  0  0
   21.9546   26.2589   34.9956 N   0  0  0  0  0  0  0  0  0  0  0  0
   20.5370   26.1329   34.7812 C   0  0  0  0  0  0  0  0  0  0  0  0
   19.6581   25.8347   35.7331 C   0  0  0  0  0  0  0  0  0  0  0  0
   18.2473   26.2440   36.0606 C   0  0  0  0  0  0  0  0  0  0  0  0
   18.2958   25.8134   37.3886 O   0  0  0  0  0  0  0  0  0  0  0  0
   19.5498   25.2690   37.1140 C   0  0  2  0  0  0  0  0  0  0  0  0
   20.6796   25.7717   38.0099 C   0  0  0  0  0  0  0  0  0  0  0  0
   21.7665   24.7401   37.8947 C   0  0  0  0  0  0  0  0  0  0  0  0
   22.6404   24.7115   36.8486 C   0  0  0  0  0  0  0  0  0  0  0  0
   23.5640   23.6603   36.7258 O   0  0  0  0  0  0  0  0  0  0  0  0
   24.4988   23.3264   37.7562 C   0  0  0  0  0  0  0  0  0  0  0  0
   23.8508   22.5028   38.8806 C   0  0  0  0  0  0  0  0  0  0  0  0
   22.3241   22.4261   38.7686 C   0  0  0  0  0  0  0  0  0  0  0  0
   21.7298   23.7252   38.8783 O   0  0  0  0  0  0  0  0  0  0  0  0
  1  2  1  0
  2  3  2  0
  2  4  1  0
  4  5  2  0
  5  6  1  0
  6  7  2  0
  7  8  1  0
  8  9  2  0
  9 10  1  0
 10 11  2  0
 11 12  1  0
 12 13  2  0
 13 14  1  0
  1 15  1  0
 15 16  2  0
 16 17  1  0
 17 18  2  0
 18 19  1  0
 19 20  1  0
 20 21  1  0
 21 22  1  1
 22 23  1  0
 23 24  2  0
 24 25  1  0
 25 26  1  0
 26 27  1  0
 27 28  1  0
 28 29  1  0
 13  4  1  0
 24 15  1  0
 12  7  1  0
 21 18  1  0
 29 23  1  0
M  END
>  <AAScore>  (1) 
5902.880449413641

>  <RootName>  (1) 
./4ZLY/04_DeltaGEst/trajectory_04/rank_00/lead_0250

$$$$
