confid_12
     RDKit          3D

 28 31  0  0  0  0  0  0  0  0999 V2000
   24.5700   26.8800   35.5900 N   0  0  0  0  0  0  0  0  0  0  0  0
   25.5000   26.4000   34.6900 C   0  0  0  0  0  0  0  0  0  0  0  0
   25.1700   25.5200   33.9100 O   0  0  0  0  0  0  0  0  0  0  0  0
   26.8400   27.0200   34.7400 C   0  0  0  0  0  0  0  0  0  0  0  0
   27.3800   27.2800   35.9400 N   0  0  0  0  0  0  0  0  0  0  0  0
   28.6200   27.7400   36.0300 N   0  0  0  0  0  0  0  0  0  0  0  0
   29.3800   28.0000   34.9600 C   0  0  0  0  0  0  0  0  0  0  0  0
   30.6700   28.5000   35.1300 C   0  0  0  0  0  0  0  0  0  0  0  0
   31.5400   28.6100   34.0300 C   0  0  0  0  0  0  0  0  0  0  0  0
   31.0900   28.2200   32.7700 C   0  0  0  0  0  0  0  0  0  0  0  0
   29.8000   27.7000   32.6000 C   0  0  0  0  0  0  0  0  0  0  0  0
   28.9600   27.5500   33.7100 C   0  0  0  0  0  0  0  0  0  0  0  0
   27.6600   27.0300   33.5900 C   0  0  0  0  0  0  0  0  0  0  0  0
   27.1600   26.7400   32.3400 N   0  0  0  0  0  0  0  0  0  0  0  0
   33.1605   29.2548   34.2593 S   0  0  0  0  0  6  0  0  0  0  0  0
   33.8713   28.4362   35.3011 O   0  0  0  0  0  0  0  0  0  0  0  0
   33.9502   29.1934   32.9815 O   0  0  0  0  0  0  0  0  0  0  0  0
   33.0459   30.9016   34.7857 N   0  0  0  0  0  0  0  0  0  0  0  0
   33.3326   31.3464   36.1466 C   0  0  0  0  0  0  0  0  0  0  0  0
   32.8813   32.8449   36.2104 C   0  0  0  0  0  0  0  0  0  0  0  0
   34.0783   33.7736   36.4741 C   0  0  0  0  0  0  0  0  0  0  0  0
   31.7901   33.0513   37.2749 C   0  0  0  0  0  0  0  0  0  0  0  0
   32.3258   33.0849   34.8336 C   0  0  0  0  0  0  0  0  0  0  0  0
   32.4344   31.9554   34.0667 C   0  0  0  0  0  0  0  0  0  0  0  0
   31.9770   31.9213   32.7455 C   0  0  0  0  0  0  0  0  0  0  0  0
   31.3988   33.0823   32.2084 C   0  0  0  0  0  0  0  0  0  0  0  0
   31.2828   34.2442   32.9939 C   0  0  0  0  0  0  0  0  0  0  0  0
   31.7491   34.2516   34.3182 C   0  0  0  0  0  0  0  0  0  0  0  0
  1  2  1  0
  2  3  2  0
  2  4  1  0
  4  5  2  0
  5  6  1  0
  6  7  2  0
  7  8  1  0
  8  9  2  0
  9 10  1  0
 10 11  2  0
 11 12  1  0
 12 13  2  0
 13 14  1  0
  9 15  1  0
 15 16  2  0
 15 17  2  0
 15 18  1  0
 18 19  1  0
 19 20  1  0
 20 21  1  0
 20 22  1  0
 20 23  1  0
 23 24  2  0
 24 25  1  0
 25 26  2  0
 26 27  1  0
 27 28  2  0
 13  4  1  0
 24 18  1  0
 12  7  1  0
 28 23  1  0
M  END
>  <AAScore>  (1) 
-5.26711422003402

>  <RootName>  (1) 
./4ZLY/04_DeltaGEst/trajectory_05/rank_01/lead_0175

$$$$
