confid_17
     RDKit          3D

 29 32  0  0  0  0  0  0  0  0999 V2000
   24.5500   26.3900   36.2500 N   0  0  0  0  0  0  0  0  0  0  0  0
   25.6000   26.1300   35.4000 C   0  0  0  0  0  0  0  0  0  0  0  0
   25.4300   25.4300   34.4200 O   0  0  0  0  0  0  0  0  0  0  0  0
   26.9800   26.6300   35.7100 C   0  0  0  0  0  0  0  0  0  0  0  0
   27.3200   26.8200   36.9800 N   0  0  0  0  0  0  0  0  0  0  0  0
   28.4700   27.4000   37.3100 N   0  0  0  0  0  0  0  0  0  0  0  0
   29.4000   27.6300   36.3700 C   0  0  0  0  0  0  0  0  0  0  0  0
   30.6600   28.0500   36.8000 C   0  0  0  0  0  0  0  0  0  0  0  0
   31.5700   28.3600   35.7800 C   0  0  0  0  0  0  0  0  0  0  0  0
   31.3700   28.1000   34.4300 C   0  0  0  0  0  0  0  0  0  0  0  0
   30.1200   27.5900   34.0500 C   0  0  0  0  0  0  0  0  0  0  0  0
   29.1500   27.3400   35.0300 C   0  0  0  0  0  0  0  0  0  0  0  0
   27.8800   26.8900   34.6600 C   0  0  0  0  0  0  0  0  0  0  0  0
   27.4800   26.6100   33.3700 N   0  0  0  0  0  0  0  0  0  0  0  0
   30.9721   28.3108   38.1816 N   0  0  0  0  0  0  0  0  0  0  0  0
   32.0844   27.6159   38.8154 C   0  0  0  0  0  0  0  0  0  0  0  0
   31.5349   26.7695   39.9559 C   0  0  0  0  0  0  0  0  0  0  0  0
   30.6019   27.5556   40.8555 C   0  0  0  0  0  0  0  0  0  0  0  0
   29.9253   28.6398   40.3906 C   0  0  0  0  0  0  0  0  0  0  0  0
   30.1012   29.0526   39.0077 N   0  0  0  0  0  0  0  0  0  0  0  0
   29.4519   30.2544   38.4705 C   0  0  0  0  0  0  0  0  0  0  0  0
   28.9424   29.3623   41.2980 C   0  0  0  0  0  0  0  0  0  0  0  0
   27.7184   28.4899   41.6061 C   0  0  0  0  0  0  0  0  0  0  0  0
   27.9844   27.5903   42.7523 N   0  0  0  0  0  0  0  0  0  0  0  0
   26.7215   27.1289   43.3959 C   0  0  0  0  0  0  0  0  0  0  0  0
   25.9945   26.0224   42.6080 C   0  0  0  0  0  0  0  0  0  0  0  0
   26.9723   26.6990   44.8479 C   0  0  0  0  0  0  0  0  0  0  0  0
   28.9047   26.4879   42.3855 C   0  0  0  0  0  0  0  0  0  0  0  0
   30.3468   26.9948   42.2386 C   0  0  0  0  0  0  0  0  0  0  0  0
  1  2  1  0
  2  3  2  0
  2  4  1  0
  4  5  2  0
  5  6  1  0
  6  7  2  0
  7  8  1  0
  8  9  2  0
  9 10  1  0
 10 11  2  0
 11 12  1  0
 12 13  2  0
 13 14  1  0
  8 15  1  0
 15 16  1  0
 16 17  1  0
 17 18  1  0
 18 19  2  0
 19 20  1  0
 20 21  1  0
 19 22  1  0
 22 23  1  0
 23 24  1  0
 24 25  1  0
 25 26  1  0
 25 27  1  0
 24 28  1  0
 28 29  1  0
 13  4  1  0
 20 15  1  0
 12  7  1  0
 29 18  1  0
M  END
>  <AAScore>  (1) 
17.861709800527866

>  <RootName>  (1) 
./4ZLY/04_DeltaGEst/trajectory_01/rank_01/lead_0188

$$$$
