confid_6
     RDKit          3D

 30 33  0  0  0  0  0  0  0  0999 V2000
   24.4800   26.1000   36.1300 N   0  0  0  0  0  0  0  0  0  0  0  0
   25.2500   26.2500   34.9900 C   0  0  0  0  0  0  0  0  0  0  0  0
   24.7400   25.7600   33.9900 O   0  0  0  0  0  0  0  0  0  0  0  0
   26.5900   26.8900   34.9600 C   0  0  0  0  0  0  0  0  0  0  0  0
   27.0600   27.2400   36.1600 N   0  0  0  0  0  0  0  0  0  0  0  0
   28.3000   27.7100   36.2400 N   0  0  0  0  0  0  0  0  0  0  0  0
   29.0500   27.9600   35.1500 C   0  0  0  0  0  0  0  0  0  0  0  0
   30.3400   28.4900   35.2600 C   0  0  0  0  0  0  0  0  0  0  0  0
   31.1100   28.8200   34.1400 C   0  0  0  0  0  0  0  0  0  0  0  0
   30.5200   28.6700   32.8800 C   0  0  0  0  0  0  0  0  0  0  0  0
   29.2900   28.0200   32.7700 C   0  0  0  0  0  0  0  0  0  0  0  0
   28.5200   27.7100   33.8900 C   0  0  0  0  0  0  0  0  0  0  0  0
   27.2700   27.0800   33.7600 C   0  0  0  0  0  0  0  0  0  0  0  0
   26.7500   26.8800   32.4900 N   0  0  0  0  0  0  0  0  0  0  0  0
   23.1004   25.6853   36.1597 C   0  0  0  0  0  0  0  0  0  0  0  0
   22.3154   25.5447   35.0731 N   0  0  0  0  0  0  0  0  0  0  0  0
   21.1078   25.2065   35.5812 C   0  0  0  0  0  0  0  0  0  0  0  0
   19.9126   24.9531   34.7085 C   0  0  0  0  0  0  0  0  0  0  0  0
   19.4052   23.5599   34.7976 N   0  0  0  0  0  0  0  0  0  0  0  0
   19.3920   22.9656   36.1590 C   0  0  0  0  0  0  0  0  0  0  0  0
   18.8743   23.9550   37.2171 C   0  0  0  0  0  0  0  0  0  0  0  0
   19.9878   24.8154   37.8475 C   0  0  0  0  0  0  0  0  0  0  0  0
   21.0985   25.1369   36.9367 N   0  0  0  0  0  0  0  0  0  0  0  0
   22.3577   25.4554   37.2957 C   0  0  0  0  0  0  0  0  0  0  0  0
   22.8356   25.5472   38.6474 N   0  0  0  0  0  0  0  0  0  0  0  0
   23.8558   24.6151   39.1237 C   0  0  0  0  0  0  0  0  0  0  0  0
   22.1704   26.4251   39.6088 C   0  0  0  0  0  0  0  0  0  0  0  0
   19.9132   22.6644   33.7217 C   0  0  0  0  0  0  0  0  0  0  0  0
   21.3630   22.1954   33.9400 C   0  0  0  0  0  0  0  0  0  0  0  0
   18.9809   21.4621   33.5167 C   0  0  0  0  0  0  0  0  0  0  0  0
  1  2  1  0
  2  3  2  0
  2  4  1  0
  4  5  2  0
  5  6  1  0
  6  7  2  0
  7  8  1  0
  8  9  2  0
  9 10  1  0
 10 11  2  0
 11 12  1  0
 12 13  2  0
 13 14  1  0
  1 15  1  0
 15 16  1  0
 16 17  2  0
 17 18  1  0
 18 19  1  0
 19 20  1  0
 20 21  1  0
 21 22  1  0
 22 23  1  0
 23 24  1  0
 24 25  1  0
 25 26  1  0
 25 27  1  0
 19 28  1  0
 28 29  1  0
 28 30  1  0
 13  4  1  0
 24 15  2  0
 12  7  1  0
 23 17  1  0
M  END
>  <AAScore>  (1) 
2402.3407295387497

>  <RootName>  (1) 
./4ZLY/04_DeltaGEst/trajectory_00/rank_01/lead_0163

$$$$
