confid_4
     RDKit          3D

 28 31  0  0  0  0  0  0  0  0999 V2000
   24.6900   26.1200   35.5300 N   0  0  0  0  0  0  0  0  0  0  0  0
   25.6600   25.6700   34.6600 C   0  0  0  0  0  0  0  0  0  0  0  0
   25.2400   25.0100   33.7200 O   0  0  0  0  0  0  0  0  0  0  0  0
   27.0300   26.2200   34.8800 C   0  0  0  0  0  0  0  0  0  0  0  0
   27.3500   26.7300   36.0700 N   0  0  0  0  0  0  0  0  0  0  0  0
   28.5700   27.1800   36.3300 N   0  0  0  0  0  0  0  0  0  0  0  0
   29.5300   27.1100   35.3900 C   0  0  0  0  0  0  0  0  0  0  0  0
   30.8300   27.5700   35.6500 C   0  0  0  0  0  0  0  0  0  0  0  0
   31.8500   27.5400   34.6900 C   0  0  0  0  0  0  0  0  0  0  0  0
   31.5100   27.1200   33.4000 C   0  0  0  0  0  0  0  0  0  0  0  0
   30.2200   26.6300   33.1100 C   0  0  0  0  0  0  0  0  0  0  0  0
   29.2400   26.6600   34.1000 C   0  0  0  0  0  0  0  0  0  0  0  0
   27.9300   26.2600   33.8100 C   0  0  0  0  0  0  0  0  0  0  0  0
   27.5200   25.7100   32.6100 N   0  0  0  0  0  0  0  0  0  0  0  0
   31.1472   28.0705   36.9617 N   0  0  0  0  0  0  0  0  0  0  0  0
   32.2036   27.4297   37.7469 C   0  0  0  0  0  0  0  0  0  0  0  0
   31.8477   27.4585   39.2334 C   0  0  0  0  0  0  0  0  0  0  0  0
   31.5258   28.8639   39.6975 C   0  0  0  0  0  0  0  0  0  0  0  0
   31.7870   29.2363   41.0331 C   0  0  0  0  0  0  0  0  0  0  0  0
   31.4482   30.5281   41.4674 C   0  0  0  0  0  0  0  0  0  0  0  0
   30.8460   31.4313   40.5967 C   0  0  0  0  0  0  0  0  0  0  0  0
   30.5555   31.0692   39.2800 C   0  0  0  0  0  0  0  0  0  0  0  0
   29.8170   32.3032   38.2610 Cl  0  0  0  0  0  0  0  0  0  0  0  0
   30.8796   29.7692   38.8176 C   0  0  0  0  0  0  0  0  0  0  0  0
   30.5796   29.3066   37.4336 C   0  0  0  0  0  0  0  0  0  0  0  0
   29.8204   29.9708   36.6773 O   0  0  0  0  0  0  0  0  0  0  0  0
   32.3780   28.3013   41.9003 O   0  0  0  0  0  0  0  0  0  0  0  0
   32.6914   28.5482   43.2673 C   0  0  0  0  0  0  0  0  0  0  0  0
  1  2  1  0
  2  3  2  0
  2  4  1  0
  4  5  2  0
  5  6  1  0
  6  7  2  0
  7  8  1  0
  8  9  2  0
  9 10  1  0
 10 11  2  0
 11 12  1  0
 12 13  2  0
 13 14  1  0
  8 15  1  0
 15 16  1  0
 16 17  1  0
 17 18  1  0
 18 19  2  0
 19 20  1  0
 20 21  2  0
 21 22  1  0
 22 23  1  0
 22 24  2  0
 24 25  1  0
 25 26  2  0
 19 27  1  0
 27 28  1  0
 13  4  1  0
 25 15  1  0
 12  7  1  0
 24 18  1  0
M  END
>  <AAScore>  (1) 
5.639932448343425

>  <RootName>  (1) 
./4ZLY/04_DeltaGEst/trajectory_02/rank_01/lead_0150

$$$$
