confid_16
     RDKit          3D

 29 32  0  0  0  0  0  0  0  0999 V2000
   24.2000   26.2400   35.6900 N   0  0  0  0  0  0  0  0  0  0  0  0
   24.8500   26.2800   34.4800 C   0  0  0  0  0  0  0  0  0  0  0  0
   24.3100   25.7400   33.5400 O   0  0  0  0  0  0  0  0  0  0  0  0
   26.1800   26.9700   34.4700 C   0  0  0  0  0  0  0  0  0  0  0  0
   26.6500   27.6000   35.5500 N   0  0  0  0  0  0  0  0  0  0  0  0
   27.7900   28.2700   35.6200 N   0  0  0  0  0  0  0  0  0  0  0  0
   28.5400   28.3000   34.5100 C   0  0  0  0  0  0  0  0  0  0  0  0
   29.7700   28.9400   34.5600 C   0  0  0  0  0  0  0  0  0  0  0  0
   30.7000   28.8900   33.5000 C   0  0  0  0  0  0  0  0  0  0  0  0
   30.3700   28.1400   32.3700 C   0  0  0  0  0  0  0  0  0  0  0  0
   29.1200   27.5200   32.2800 C   0  0  0  0  0  0  0  0  0  0  0  0
   28.2100   27.6100   33.3300 C   0  0  0  0  0  0  0  0  0  0  0  0
   26.9700   26.9700   33.3100 C   0  0  0  0  0  0  0  0  0  0  0  0
   26.5300   26.2400   32.2200 N   0  0  0  0  0  0  0  0  0  0  0  0
   22.7712   26.1554   35.8466 C   0  0  0  0  0  0  0  0  0  0  0  0
   22.2561   25.3646   36.7287 N   0  0  0  0  0  0  0  0  0  0  0  0
   20.8786   25.6798   36.8317 C   0  0  0  0  0  0  0  0  0  0  0  0
   20.5498   26.7049   36.0565 C   0  0  0  0  0  0  0  0  0  0  0  0
   19.1975   27.3751   36.1166 C   0  0  0  0  0  0  0  0  0  0  0  0
   18.1099   26.5163   35.4482 C   0  0  0  0  0  0  0  0  0  0  0  0
   18.0107   26.7950   34.0059 N   0  0  0  0  0  0  0  0  0  0  0  0
   19.1575   26.2612   33.2524 C   0  0  0  0  0  0  0  0  0  0  0  0
   20.2669   27.3264   33.0934 C   0  0  0  0  0  0  0  0  0  0  0  0
   21.6105   26.9038   33.7299 C   0  0  0  0  0  0  0  0  0  0  0  0
   21.7659   27.1407   35.2639 C   0  0  2  0  0  0  0  0  0  0  0  0
   22.2173   28.5792   35.6198 C   0  0  0  0  0  0  0  0  0  0  0  0
   21.3242   29.5448   35.1055 O   0  0  0  0  0  0  0  0  0  0  0  0
   21.7461   30.8331   35.5099 C   0  0  0  0  0  0  0  0  0  0  0  0
   20.8037   31.8785   34.9274 C   0  0  0  0  0  0  0  0  0  0  0  0
  1  2  1  0
  2  3  2  0
  2  4  1  0
  4  5  2  0
  5  6  1  0
  6  7  2  0
  7  8  1  0
  8  9  2  0
  9 10  1  0
 10 11  2  0
 11 12  1  0
 12 13  2  0
 13 14  1  0
  1 15  1  0
 15 16  2  0
 16 17  1  0
 17 18  2  0
 18 19  1  0
 19 20  1  0
 20 21  1  0
 21 22  1  0
 22 23  1  0
 23 24  1  0
 24 25  1  0
 25 26  1  6
 26 27  1  0
 27 28  1  0
 28 29  1  0
 13  4  1  0
 25 15  1  0
 12  7  1  0
 25 18  1  0
M  END
>  <AAScore>  (1) 
1531.9550138011512

>  <RootName>  (1) 
./4ZLY/04_DeltaGEst/trajectory_04/rank_00/lead_0413

$$$$
