confid_5
     RDKit          3D

 28 30  0  0  0  0  0  0  0  0999 V2000
   24.4800   26.1000   36.1300 N   0  0  0  0  0  0  0  0  0  0  0  0
   25.2500   26.2500   34.9900 C   0  0  0  0  0  0  0  0  0  0  0  0
   24.7400   25.7600   33.9900 O   0  0  0  0  0  0  0  0  0  0  0  0
   26.5900   26.8900   34.9600 C   0  0  0  0  0  0  0  0  0  0  0  0
   27.0600   27.2400   36.1600 N   0  0  0  0  0  0  0  0  0  0  0  0
   28.3000   27.7100   36.2400 N   0  0  0  0  0  0  0  0  0  0  0  0
   29.0500   27.9600   35.1500 C   0  0  0  0  0  0  0  0  0  0  0  0
   30.3400   28.4900   35.2600 C   0  0  0  0  0  0  0  0  0  0  0  0
   31.1100   28.8200   34.1400 C   0  0  0  0  0  0  0  0  0  0  0  0
   30.5200   28.6700   32.8800 C   0  0  0  0  0  0  0  0  0  0  0  0
   29.2900   28.0200   32.7700 C   0  0  0  0  0  0  0  0  0  0  0  0
   28.5200   27.7100   33.8900 C   0  0  0  0  0  0  0  0  0  0  0  0
   27.2700   27.0800   33.7600 C   0  0  0  0  0  0  0  0  0  0  0  0
   26.7500   26.8800   32.4900 N   0  0  0  0  0  0  0  0  0  0  0  0
   23.0401   26.0992   36.1477 C   0  0  0  0  0  0  0  0  0  0  0  0
   22.2972   26.8541   35.2212 C   0  0  0  0  0  0  0  0  0  0  0  0
   20.8942   26.8645   35.2712 C   0  0  0  0  0  0  0  0  0  0  0  0
   20.1396   27.6500   34.3294 N   0  0  0  0  0  0  0  0  0  0  0  0
   20.4445   29.0773   34.1938 C   0  0  0  0  0  0  0  0  0  0  0  0
   19.1544   27.0098   33.4851 C   0  0  0  0  0  0  0  0  0  0  0  0
   18.9773   25.7630   33.5691 O   0  0  0  0  0  0  0  0  0  0  0  0
   18.2787   27.7942   32.5364 C   0  0  0  0  0  0  0  0  0  0  0  0
   17.9482   26.9900   31.3409 N   0  0  0  0  0  0  0  0  0  0  0  0
   19.0946   26.9380   30.4155 C   0  0  0  0  0  0  0  0  0  0  0  0
   16.7824   27.5646   30.6498 C   0  0  0  0  0  0  0  0  0  0  0  0
   20.2344   26.1225   36.2627 C   0  0  0  0  0  0  0  0  0  0  0  0
   20.9679   25.3832   37.1934 C   0  0  0  0  0  0  0  0  0  0  0  0
   22.3636   25.3787   37.1427 C   0  0  0  0  0  0  0  0  0  0  0  0
  1  2  1  0
  2  3  2  0
  2  4  1  0
  4  5  2  0
  5  6  1  0
  6  7  2  0
  7  8  1  0
  8  9  2  0
  9 10  1  0
 10 11  2  0
 11 12  1  0
 12 13  2  0
 13 14  1  0
  1 15  1  0
 15 16  2  0
 16 17  1  0
 17 18  1  0
 18 19  1  0
 18 20  1  0
 20 21  2  0
 20 22  1  0
 22 23  1  0
 23 24  1  0
 23 25  1  0
 17 26  2  0
 26 27  1  0
 27 28  2  0
 13  4  1  0
 28 15  1  0
 12  7  1  0
M  END
>  <AAScore>  (1) 
156.17861635729372

>  <RootName>  (1) 
./4ZLY/04_DeltaGEst/trajectory_00/rank_00/lead_0040

$$$$
