confid_5
     RDKit          3D

 27 30  0  0  0  0  0  0  0  0999 V2000
   24.6900   26.1200   35.5300 N   0  0  0  0  0  0  0  0  0  0  0  0
   25.6600   25.6700   34.6600 C   0  0  0  0  0  0  0  0  0  0  0  0
   25.2400   25.0100   33.7200 O   0  0  0  0  0  0  0  0  0  0  0  0
   27.0300   26.2200   34.8800 C   0  0  0  0  0  0  0  0  0  0  0  0
   27.3500   26.7300   36.0700 N   0  0  0  0  0  0  0  0  0  0  0  0
   28.5700   27.1800   36.3300 N   0  0  0  0  0  0  0  0  0  0  0  0
   29.5300   27.1100   35.3900 C   0  0  0  0  0  0  0  0  0  0  0  0
   30.8300   27.5700   35.6500 C   0  0  0  0  0  0  0  0  0  0  0  0
   31.8500   27.5400   34.6900 C   0  0  0  0  0  0  0  0  0  0  0  0
   31.5100   27.1200   33.4000 C   0  0  0  0  0  0  0  0  0  0  0  0
   30.2200   26.6300   33.1100 C   0  0  0  0  0  0  0  0  0  0  0  0
   29.2400   26.6600   34.1000 C   0  0  0  0  0  0  0  0  0  0  0  0
   27.9300   26.2600   33.8100 C   0  0  0  0  0  0  0  0  0  0  0  0
   27.5200   25.7100   32.6100 N   0  0  0  0  0  0  0  0  0  0  0  0
   31.2020   28.0796   36.9950 C   0  0  0  0  0  0  0  0  0  0  0  0
   30.7648   27.6026   38.2189 C   0  0  0  0  0  0  0  0  0  0  0  0
   31.4352   28.3684   39.1531 C   0  0  0  0  0  0  0  0  0  0  0  0
   31.2535   28.2349   40.6131 C   0  0  0  0  0  0  0  0  0  0  0  0
   30.8305   27.1382   41.0699 O   0  0  0  0  0  0  0  0  0  0  0  0
   31.4070   29.3527   41.5047 N   0  0  0  0  0  0  0  0  0  0  0  0
   32.6394   30.1452   41.5015 C   0  0  0  0  0  0  0  0  0  0  0  0
   32.7605   30.9631   40.2174 C   0  0  0  0  0  0  0  0  0  0  0  0
   33.2695   30.1151   39.0533 C   0  0  0  0  0  0  0  0  0  0  0  0
   32.2301   29.2487   38.5006 N   0  0  0  0  0  0  0  0  0  0  0  0
   32.1078   29.0572   37.1959 N   0  0  0  0  0  0  0  0  0  0  0  0
   30.3705   29.5986   42.5185 C   0  0  0  0  0  0  0  0  0  0  0  0
   29.0970   30.1185   41.8599 C   0  0  0  0  0  0  0  0  0  0  0  0
  1  2  1  0
  2  3  2  0
  2  4  1  0
  4  5  2  0
  5  6  1  0
  6  7  2  0
  7  8  1  0
  8  9  2  0
  9 10  1  0
 10 11  2  0
 11 12  1  0
 12 13  2  0
 13 14  1  0
  8 15  1  0
 15 16  1  0
 16 17  2  0
 17 18  1  0
 18 19  2  0
 18 20  1  0
 20 21  1  0
 21 22  1  0
 22 23  1  0
 23 24  1  0
 24 25  1  0
 20 26  1  0
 26 27  1  0
 13  4  1  0
 25 15  2  0
 12  7  1  0
 24 17  1  0
M  END
>  <AAScore>  (1) 
111.95153475647496

>  <RootName>  (1) 
./4ZLY/04_DeltaGEst/trajectory_02/rank_01/lead_0053

$$$$
