confid_10
     RDKit          3D

 28 31  0  0  0  0  0  0  0  0999 V2000
   24.6900   26.1200   35.5300 N   0  0  0  0  0  0  0  0  0  0  0  0
   25.6600   25.6700   34.6600 C   0  0  0  0  0  0  0  0  0  0  0  0
   25.2400   25.0100   33.7200 O   0  0  0  0  0  0  0  0  0  0  0  0
   27.0300   26.2200   34.8800 C   0  0  0  0  0  0  0  0  0  0  0  0
   27.3500   26.7300   36.0700 N   0  0  0  0  0  0  0  0  0  0  0  0
   28.5700   27.1800   36.3300 N   0  0  0  0  0  0  0  0  0  0  0  0
   29.5300   27.1100   35.3900 C   0  0  0  0  0  0  0  0  0  0  0  0
   30.8300   27.5700   35.6500 C   0  0  0  0  0  0  0  0  0  0  0  0
   31.8500   27.5400   34.6900 C   0  0  0  0  0  0  0  0  0  0  0  0
   31.5100   27.1200   33.4000 C   0  0  0  0  0  0  0  0  0  0  0  0
   30.2200   26.6300   33.1100 C   0  0  0  0  0  0  0  0  0  0  0  0
   29.2400   26.6600   34.1000 C   0  0  0  0  0  0  0  0  0  0  0  0
   27.9300   26.2600   33.8100 C   0  0  0  0  0  0  0  0  0  0  0  0
   27.5200   25.7100   32.6100 N   0  0  0  0  0  0  0  0  0  0  0  0
   31.1463   28.0658   36.9581 N   0  0  0  0  0  0  0  0  0  0  0  0
   31.9211   27.2370   37.8878 C   0  0  0  0  0  0  0  0  0  0  0  0
   31.2189   27.1949   39.2516 C   0  0  0  0  0  0  0  0  0  0  0  0
   30.6776   28.5129   39.6218 N   0  0  0  0  0  0  0  0  0  0  0  0
   29.5749   28.5801   40.5409 C   0  0  0  0  0  0  0  0  0  0  0  0
   28.3168   29.0564   40.2220 C   0  0  0  0  0  0  0  0  0  0  0  0
   27.5713   28.9386   41.3792 C   0  0  0  0  0  0  0  0  0  0  0  0
   28.4031   28.4281   42.3574 C   0  0  0  0  0  0  0  0  0  0  0  0
   29.6282   28.2062   41.8393 N   0  0  0  0  0  0  0  0  0  0  0  0
   30.7846   27.7125   42.5875 C   0  0  0  0  0  0  0  0  0  0  0  0
   30.6943   26.2021   42.7726 C   0  0  0  0  0  0  0  0  0  0  0  0
   26.1627   29.3922   41.5705 C   0  0  0  0  0  0  0  0  0  0  0  0
   31.0228   29.6920   38.8179 C   0  0  0  0  0  0  0  0  0  0  0  0
   30.7131   29.4163   37.3436 C   0  0  0  0  0  0  0  0  0  0  0  0
  1  2  1  0
  2  3  2  0
  2  4  1  0
  4  5  2  0
  5  6  1  0
  6  7  2  0
  7  8  1  0
  8  9  2  0
  9 10  1  0
 10 11  2  0
 11 12  1  0
 12 13  2  0
 13 14  1  0
  8 15  1  0
 15 16  1  0
 16 17  1  0
 17 18  1  0
 18 19  1  0
 19 20  2  0
 20 21  1  0
 21 22  2  0
 22 23  1  0
 23 24  1  0
 24 25  1  0
 21 26  1  0
 18 27  1  0
 27 28  1  0
 13  4  1  0
 28 15  1  0
 12  7  1  0
 23 19  1  0
M  END
>  <AAScore>  (1) 
-3.2048685406682744

>  <RootName>  (1) 
./4ZLY/04_DeltaGEst/trajectory_02/rank_01/lead_0182

$$$$
