confid_10
     RDKit          3D

 27 30  0  0  0  0  0  0  0  0999 V2000
   24.2000   26.2400   35.6900 N   0  0  0  0  0  0  0  0  0  0  0  0
   24.8500   26.2800   34.4800 C   0  0  0  0  0  0  0  0  0  0  0  0
   24.3100   25.7400   33.5400 O   0  0  0  0  0  0  0  0  0  0  0  0
   26.1800   26.9700   34.4700 C   0  0  0  0  0  0  0  0  0  0  0  0
   26.6500   27.6000   35.5500 N   0  0  0  0  0  0  0  0  0  0  0  0
   27.7900   28.2700   35.6200 N   0  0  0  0  0  0  0  0  0  0  0  0
   28.5400   28.3000   34.5100 C   0  0  0  0  0  0  0  0  0  0  0  0
   29.7700   28.9400   34.5600 C   0  0  0  0  0  0  0  0  0  0  0  0
   30.7000   28.8900   33.5000 C   0  0  0  0  0  0  0  0  0  0  0  0
   30.3700   28.1400   32.3700 C   0  0  0  0  0  0  0  0  0  0  0  0
   29.1200   27.5200   32.2800 C   0  0  0  0  0  0  0  0  0  0  0  0
   28.2100   27.6100   33.3300 C   0  0  0  0  0  0  0  0  0  0  0  0
   26.9700   26.9700   33.3100 C   0  0  0  0  0  0  0  0  0  0  0  0
   26.5300   26.2400   32.2200 N   0  0  0  0  0  0  0  0  0  0  0  0
   30.1358   29.6685   35.7410 N   0  0  0  0  0  0  0  0  0  0  0  0
   31.1113   29.0820   36.6597 C   0  0  0  0  0  0  0  0  0  0  0  0
   30.7812   29.4904   38.0884 C   0  0  0  0  0  0  0  0  0  0  0  0
   30.6951   30.9872   38.1937 C   0  0  0  0  0  0  0  0  0  0  0  0
   31.0934   31.6159   39.3797 C   0  0  0  0  0  0  0  0  0  0  0  0
   31.0266   33.0012   39.5049 C   0  0  0  0  0  0  0  0  0  0  0  0
   30.5260   33.7913   38.4562 C   0  0  0  0  0  0  0  0  0  0  0  0
   30.0720   33.1665   37.2702 C   0  0  0  0  0  0  0  0  0  0  0  0
   29.5307   34.0149   36.1414 C   0  0  0  0  0  0  0  0  0  0  0  0
   30.1837   31.7565   37.1251 C   0  0  0  0  0  0  0  0  0  0  0  0
   29.7182   31.0733   35.8472 C   0  0  0  0  0  0  0  0  0  0  0  0
   30.4661   35.1920   38.5612 O   0  0  0  0  0  0  0  0  0  0  0  0
   30.8496   35.9387   39.7142 C   0  0  0  0  0  0  0  0  0  0  0  0
  1  2  1  0
  2  3  2  0
  2  4  1  0
  4  5  2  0
  5  6  1  0
  6  7  2  0
  7  8  1  0
  8  9  2  0
  9 10  1  0
 10 11  2  0
 11 12  1  0
 12 13  2  0
 13 14  1  0
  8 15  1  0
 15 16  1  0
 16 17  1  0
 17 18  1  0
 18 19  2  0
 19 20  1  0
 20 21  2  0
 21 22  1  0
 22 23  1  0
 22 24  2  0
 24 25  1  0
 21 26  1  0
 26 27  1  0
 13  4  1  0
 25 15  1  0
 12  7  1  0
 24 18  1  0
M  END
>  <AAScore>  (1) 
-5.7848715178059855

>  <RootName>  (1) 
./4ZLY/04_DeltaGEst/trajectory_04/rank_01/lead_0459

$$$$
