confid_19
     RDKit          3D

 29 32  0  0  0  0  0  0  0  0999 V2000
   24.2000   26.2400   35.6900 N   0  0  0  0  0  0  0  0  0  0  0  0
   24.8500   26.2800   34.4800 C   0  0  0  0  0  0  0  0  0  0  0  0
   24.3100   25.7400   33.5400 O   0  0  0  0  0  0  0  0  0  0  0  0
   26.1800   26.9700   34.4700 C   0  0  0  0  0  0  0  0  0  0  0  0
   26.6500   27.6000   35.5500 N   0  0  0  0  0  0  0  0  0  0  0  0
   27.7900   28.2700   35.6200 N   0  0  0  0  0  0  0  0  0  0  0  0
   28.5400   28.3000   34.5100 C   0  0  0  0  0  0  0  0  0  0  0  0
   29.7700   28.9400   34.5600 C   0  0  0  0  0  0  0  0  0  0  0  0
   30.7000   28.8900   33.5000 C   0  0  0  0  0  0  0  0  0  0  0  0
   30.3700   28.1400   32.3700 C   0  0  0  0  0  0  0  0  0  0  0  0
   29.1200   27.5200   32.2800 C   0  0  0  0  0  0  0  0  0  0  0  0
   28.2100   27.6100   33.3300 C   0  0  0  0  0  0  0  0  0  0  0  0
   26.9700   26.9700   33.3100 C   0  0  0  0  0  0  0  0  0  0  0  0
   26.5300   26.2400   32.2200 N   0  0  0  0  0  0  0  0  0  0  0  0
   30.1080   29.7393   35.7077 N   0  0  0  0  0  0  0  0  0  0  0  0
   29.3431   30.9608   35.9918 C   0  0  0  0  0  0  0  0  0  0  0  0
   30.2388   32.0190   36.6446 C   0  0  0  0  0  0  0  0  0  0  0  0
   31.6235   31.8498   36.1646 N   0  0  0  0  0  0  0  0  0  0  0  0
   32.4667   33.0334   36.4520 C   0  0  0  0  0  0  0  0  0  0  0  0
   32.6901   33.8060   35.1698 C   0  0  0  0  0  0  0  0  0  0  0  0
   33.4507   33.1856   34.1602 C   0  0  0  0  0  0  0  0  0  0  0  0
   33.6844   33.8294   32.9434 C   0  0  0  0  0  0  0  0  0  0  0  0
   34.4311   33.2175   31.9875 F   0  0  0  0  0  0  0  0  0  0  0  0
   33.1610   35.1053   32.7149 C   0  0  0  0  0  0  0  0  0  0  0  0
   32.4076   35.7420   33.7036 C   0  0  0  0  0  0  0  0  0  0  0  0
   32.1684   35.1105   34.9418 C   0  0  0  0  0  0  0  0  0  0  0  0
   31.3763   35.8458   35.9911 C   0  0  0  0  0  0  0  0  0  0  0  0
   32.2139   30.6029   36.7027 C   0  0  0  0  0  0  0  0  0  0  0  0
   31.2638   29.3950   36.5448 C   0  0  0  0  0  0  0  0  0  0  0  0
  1  2  1  0
  2  3  2  0
  2  4  1  0
  4  5  2  0
  5  6  1  0
  6  7  2  0
  7  8  1  0
  8  9  2  0
  9 10  1  0
 10 11  2  0
 11 12  1  0
 12 13  2  0
 13 14  1  0
  8 15  1  0
 15 16  1  0
 16 17  1  0
 17 18  1  0
 18 19  1  0
 19 20  1  0
 20 21  2  0
 21 22  1  0
 22 23  1  0
 22 24  2  0
 24 25  1  0
 25 26  2  0
 26 27  1  0
 18 28  1  0
 28 29  1  0
 13  4  1  0
 29 15  1  0
 12  7  1  0
 26 20  1  0
M  END
>  <AAScore>  (1) 
-8.43751772939367

>  <RootName>  (1) 
./4ZLY/04_DeltaGEst/trajectory_04/rank_01/lead_0170

$$$$
