confid_14
     RDKit          3D

 28 31  0  0  0  0  0  0  0  0999 V2000
   25.3300   26.2600   34.7600 N   0  0  0  0  0  0  0  0  0  0  0  0
   26.1200   25.9200   33.6900 C   0  0  0  0  0  0  0  0  0  0  0  0
   25.6300   25.1100   32.9400 O   0  0  0  0  0  0  0  0  0  0  0  0
   27.5200   26.3800   33.4600 C   0  0  0  0  0  0  0  0  0  0  0  0
   28.1600   26.6300   34.6100 N   0  0  0  0  0  0  0  0  0  0  0  0
   29.4800   26.8500   34.5700 N   0  0  0  0  0  0  0  0  0  0  0  0
   30.1900   26.7800   33.4400 C   0  0  0  0  0  0  0  0  0  0  0  0
   31.5600   27.0500   33.5000 C   0  0  0  0  0  0  0  0  0  0  0  0
   32.2700   27.2400   32.3100 C   0  0  0  0  0  0  0  0  0  0  0  0
   31.6100   27.2500   31.0800 C   0  0  0  0  0  0  0  0  0  0  0  0
   30.2700   26.8700   31.0600 C   0  0  0  0  0  0  0  0  0  0  0  0
   29.5100   26.6900   32.2300 C   0  0  0  0  0  0  0  0  0  0  0  0
   28.1400   26.4100   32.2000 C   0  0  0  0  0  0  0  0  0  0  0  0
   27.4300   26.1300   31.0500 N   0  0  0  0  0  0  0  0  0  0  0  0
   23.9387   25.9186   34.9475 C   0  0  0  0  0  0  0  0  0  0  0  0
   23.2338   25.2798   33.9749 N   0  0  0  0  0  0  0  0  0  0  0  0
   21.9224   24.9506   34.1151 C   0  0  0  0  0  0  0  0  0  0  0  0
   21.2220   24.2414   32.9784 C   0  0  0  0  0  0  0  0  0  0  0  0
   20.5259   22.9118   33.3727 C   0  0  0  0  0  0  0  0  0  0  0  0
   20.6399   22.6046   34.8181 N   0  0  0  0  0  0  0  0  0  0  0  0
   19.6560   23.3611   35.6292 C   0  0  0  0  0  0  0  0  0  0  0  0
   19.7914   24.8856   35.4670 C   0  0  0  0  0  0  0  0  0  0  0  0
   21.2373   25.2946   35.3001 C   0  0  0  0  0  0  0  0  0  0  0  0
   21.9408   25.9412   36.3346 C   0  0  0  0  0  0  0  0  0  0  0  0
   21.2726   26.2464   37.5324 O   0  0  0  0  0  0  0  0  0  0  0  0
   21.8714   26.8913   38.6523 C   0  0  0  0  0  0  0  0  0  0  0  0
   23.2971   26.2607   36.1440 C   0  0  0  0  0  0  0  0  0  0  0  0
   20.4595   21.1618   35.0482 C   0  0  0  0  0  0  0  0  0  0  0  0
  1  2  1  0
  2  3  2  0
  2  4  1  0
  4  5  2  0
  5  6  1  0
  6  7  2  0
  7  8  1  0
  8  9  2  0
  9 10  1  0
 10 11  2  0
 11 12  1  0
 12 13  2  0
 13 14  1  0
  1 15  1  0
 15 16  2  0
 16 17  1  0
 17 18  1  0
 18 19  1  0
 19 20  1  0
 20 21  1  0
 21 22  1  0
 22 23  1  0
 23 24  1  0
 24 25  1  0
 25 26  1  0
 24 27  2  0
 20 28  1  0
 13  4  1  0
 27 15  1  0
 12  7  1  0
 23 17  2  0
M  END
>  <AAScore>  (1) 
6062.235078233658

>  <RootName>  (1) 
./4ZLY/04_DeltaGEst/trajectory_03/rank_00/lead_0256

$$$$
