confid_2
     RDKit          3D

 28 31  0  0  0  0  0  0  0  0999 V2000
   24.5500   26.3900   36.2500 N   0  0  0  0  0  0  0  0  0  0  0  0
   25.6000   26.1300   35.4000 C   0  0  0  0  0  0  0  0  0  0  0  0
   25.4300   25.4300   34.4200 O   0  0  0  0  0  0  0  0  0  0  0  0
   26.9800   26.6300   35.7100 C   0  0  0  0  0  0  0  0  0  0  0  0
   27.3200   26.8200   36.9800 N   0  0  0  0  0  0  0  0  0  0  0  0
   28.4700   27.4000   37.3100 N   0  0  0  0  0  0  0  0  0  0  0  0
   29.4000   27.6300   36.3700 C   0  0  0  0  0  0  0  0  0  0  0  0
   30.6600   28.0500   36.8000 C   0  0  0  0  0  0  0  0  0  0  0  0
   31.5700   28.3600   35.7800 C   0  0  0  0  0  0  0  0  0  0  0  0
   31.3700   28.1000   34.4300 C   0  0  0  0  0  0  0  0  0  0  0  0
   30.1200   27.5900   34.0500 C   0  0  0  0  0  0  0  0  0  0  0  0
   29.1500   27.3400   35.0300 C   0  0  0  0  0  0  0  0  0  0  0  0
   27.8800   26.8900   34.6600 C   0  0  0  0  0  0  0  0  0  0  0  0
   27.4800   26.6100   33.3700 N   0  0  0  0  0  0  0  0  0  0  0  0
   30.9735   28.3056   38.1815 N   0  0  0  0  0  0  0  0  0  0  0  0
   32.1074   27.5770   38.7804 C   0  0  0  0  0  0  0  0  0  0  0  0
   32.1724   27.6964   40.3130 C   0  0  0  0  0  0  0  0  0  0  0  0
   30.9529   27.0789   41.0226 C   0  0  0  0  0  0  0  0  0  0  0  0
   29.6936   27.3048   40.2816 N   0  0  0  0  0  0  0  0  0  0  0  0
   28.5553   26.5385   40.8362 C   0  0  0  0  0  0  0  0  0  0  0  0
   28.1139   27.0003   42.2386 C   0  0  0  0  0  0  0  0  0  0  0  0
   26.8945   26.2417   42.6734 C   0  0  0  0  0  0  0  0  0  0  0  0
   26.9538   25.0118   43.3474 C   0  0  0  0  0  0  0  0  0  0  0  0
   25.7066   24.4612   43.6062 C   0  0  0  0  0  0  0  0  0  0  0  0
   24.5395   25.4972   42.9824 S   0  0  0  0  0  0  0  0  0  0  0  0
   25.5986   26.6548   42.3815 C   0  0  0  0  0  0  0  0  0  0  0  0
   30.2200   29.3345   38.9210 C   0  0  0  0  0  0  0  0  0  0  0  0
   29.3892   28.7371   40.0773 C   0  0  0  0  0  0  0  0  0  0  0  0
  1  2  1  0
  2  3  2  0
  2  4  1  0
  4  5  2  0
  5  6  1  0
  6  7  2  0
  7  8  1  0
  8  9  2  0
  9 10  1  0
 10 11  2  0
 11 12  1  0
 12 13  2  0
 13 14  1  0
  8 15  1  0
 15 16  1  0
 16 17  1  0
 17 18  1  0
 18 19  1  0
 19 20  1  0
 20 21  1  0
 21 22  1  0
 22 23  1  0
 23 24  2  0
 24 25  1  0
 25 26  1  0
 15 27  1  0
 27 28  1  0
 13  4  1  0
 28 19  1  0
 12  7  1  0
 26 22  2  0
M  END
>  <AAScore>  (1) 
40.66895366052845

>  <RootName>  (1) 
./4ZLY/04_DeltaGEst/trajectory_01/rank_01/lead_0174

$$$$
