confid_16
     RDKit          3D

 28 31  0  0  0  0  0  0  0  0999 V2000
   25.3300   26.2600   34.7600 N   0  0  0  0  0  0  0  0  0  0  0  0
   26.1200   25.9200   33.6900 C   0  0  0  0  0  0  0  0  0  0  0  0
   25.6300   25.1100   32.9400 O   0  0  0  0  0  0  0  0  0  0  0  0
   27.5200   26.3800   33.4600 C   0  0  0  0  0  0  0  0  0  0  0  0
   28.1600   26.6300   34.6100 N   0  0  0  0  0  0  0  0  0  0  0  0
   29.4800   26.8500   34.5700 N   0  0  0  0  0  0  0  0  0  0  0  0
   30.1900   26.7800   33.4400 C   0  0  0  0  0  0  0  0  0  0  0  0
   31.5600   27.0500   33.5000 C   0  0  0  0  0  0  0  0  0  0  0  0
   32.2700   27.2400   32.3100 C   0  0  0  0  0  0  0  0  0  0  0  0
   31.6100   27.2500   31.0800 C   0  0  0  0  0  0  0  0  0  0  0  0
   30.2700   26.8700   31.0600 C   0  0  0  0  0  0  0  0  0  0  0  0
   29.5100   26.6900   32.2300 C   0  0  0  0  0  0  0  0  0  0  0  0
   28.1400   26.4100   32.2000 C   0  0  0  0  0  0  0  0  0  0  0  0
   27.4300   26.1300   31.0500 N   0  0  0  0  0  0  0  0  0  0  0  0
   26.4754   27.1125   30.5215 C   0  0  0  0  0  0  0  0  0  0  0  0
   26.5825   27.2396   28.9846 C   0  0  0  0  0  0  0  0  0  0  0  0
   27.3226   26.1203   28.3554 N   0  0  0  0  0  0  0  0  0  0  0  0
   27.0770   26.0832   26.8982 C   0  0  0  0  0  0  0  0  0  0  0  0
   28.2862   25.4811   26.1661 C   0  0  0  0  0  0  0  0  0  0  0  0
   28.1568   25.6103   24.6422 C   0  0  0  0  0  0  0  0  0  0  0  0
   26.9599   24.8884   24.1501 N   0  0  0  0  0  0  0  0  0  0  0  0
   27.2182   23.4551   23.8859 C   0  0  0  0  0  0  0  0  0  0  0  0
   27.9301   23.2335   22.5381 C   0  0  0  0  0  0  0  0  0  0  0  0
   27.2169   23.8401   21.4795 O   0  0  0  0  0  0  0  0  0  0  0  0
   27.1457   25.2341   21.6952 C   0  0  0  0  0  0  0  0  0  0  0  0
   26.3498   25.5362   22.9720 C   0  0  0  0  0  0  0  0  0  0  0  0
   26.9787   24.8391   28.9997 C   0  0  0  0  0  0  0  0  0  0  0  0
   27.5879   24.8214   30.4010 C   0  0  0  0  0  0  0  0  0  0  0  0
  1  2  1  0
  2  3  2  0
  2  4  1  0
  4  5  2  0
  5  6  1  0
  6  7  2  0
  7  8  1  0
  8  9  2  0
  9 10  1  0
 10 11  2  0
 11 12  1  0
 12 13  2  0
 13 14  1  0
 14 15  1  0
 15 16  1  0
 16 17  1  0
 17 18  1  0
 18 19  1  0
 19 20  1  0
 20 21  1  0
 21 22  1  0
 22 23  1  0
 23 24  1  0
 24 25  1  0
 25 26  1  0
 17 27  1  0
 27 28  1  0
 13  4  1  0
 28 14  1  0
 12  7  1  0
 26 21  1  0
M  END
>  <AAScore>  (1) 
-2.201804063646587

>  <RootName>  (1) 
./4ZLY/04_DeltaGEst/trajectory_03/rank_01/lead_0004

$$$$
