confid_16
     RDKit          3D

 27 30  0  0  0  0  0  0  0  0999 V2000
   25.3300   26.2600   34.7600 N   0  0  0  0  0  0  0  0  0  0  0  0
   26.1200   25.9200   33.6900 C   0  0  0  0  0  0  0  0  0  0  0  0
   25.6300   25.1100   32.9400 O   0  0  0  0  0  0  0  0  0  0  0  0
   27.5200   26.3800   33.4600 C   0  0  0  0  0  0  0  0  0  0  0  0
   28.1600   26.6300   34.6100 N   0  0  0  0  0  0  0  0  0  0  0  0
   29.4800   26.8500   34.5700 N   0  0  0  0  0  0  0  0  0  0  0  0
   30.1900   26.7800   33.4400 C   0  0  0  0  0  0  0  0  0  0  0  0
   31.5600   27.0500   33.5000 C   0  0  0  0  0  0  0  0  0  0  0  0
   32.2700   27.2400   32.3100 C   0  0  0  0  0  0  0  0  0  0  0  0
   31.6100   27.2500   31.0800 C   0  0  0  0  0  0  0  0  0  0  0  0
   30.2700   26.8700   31.0600 C   0  0  0  0  0  0  0  0  0  0  0  0
   29.5100   26.6900   32.2300 C   0  0  0  0  0  0  0  0  0  0  0  0
   28.1400   26.4100   32.2000 C   0  0  0  0  0  0  0  0  0  0  0  0
   27.4300   26.1300   31.0500 N   0  0  0  0  0  0  0  0  0  0  0  0
   24.1785   25.5154   35.2157 C   0  0  0  0  0  0  0  0  0  0  0  0
   24.0499   24.1234   34.8640 N   0  0  0  0  0  0  0  0  0  0  0  0
   23.1018   23.3598   35.3142 C   0  0  0  0  0  0  0  0  0  0  0  0
   23.0556   21.9061   34.9371 C   0  0  0  0  0  0  0  0  0  0  0  0
   21.6505   21.3311   35.1606 C   0  0  0  0  0  0  0  0  0  0  0  0
   21.1379   21.7088   36.5564 C   0  0  0  0  0  0  0  0  0  0  0  0
   21.1738   23.1604   36.7485 N   0  0  0  0  0  0  0  0  0  0  0  0
   22.0921   23.9230   36.2265 C   0  0  0  0  0  0  0  0  0  0  0  0
   22.1046   25.3429   36.4588 N   0  0  0  0  0  0  0  0  0  0  0  0
   20.8993   26.0122   36.9575 C   0  0  0  0  0  0  0  0  0  0  0  0
   23.2719   26.0945   36.0360 C   0  0  0  0  0  0  0  0  0  0  0  0
   23.4954   27.4175   36.4527 O   0  0  0  0  0  0  0  0  0  0  0  0
   23.1796   27.9195   37.7470 C   0  0  0  0  0  0  0  0  0  0  0  0
  1  2  1  0
  2  3  2  0
  2  4  1  0
  4  5  2  0
  5  6  1  0
  6  7  2  0
  7  8  1  0
  8  9  2  0
  9 10  1  0
 10 11  2  0
 11 12  1  0
 12 13  2  0
 13 14  1  0
  1 15  1  0
 15 16  1  0
 16 17  2  0
 17 18  1  0
 18 19  1  0
 19 20  1  0
 20 21  1  0
 21 22  2  0
 22 23  1  0
 23 24  1  0
 23 25  1  0
 25 26  1  0
 26 27  1  0
 13  4  1  0
 25 15  2  0
 12  7  1  0
 22 17  1  0
M  END
>  <AAScore>  (1) 
3137.608606966064

>  <RootName>  (1) 
./4ZLY/04_DeltaGEst/trajectory_03/rank_00/lead_0388

$$$$
