confid_5
     RDKit          3D

 27 30  0  0  0  0  0  0  0  0999 V2000
   25.3300   26.2600   34.7600 N   0  0  0  0  0  0  0  0  0  0  0  0
   26.1200   25.9200   33.6900 C   0  0  0  0  0  0  0  0  0  0  0  0
   25.6300   25.1100   32.9400 O   0  0  0  0  0  0  0  0  0  0  0  0
   27.5200   26.3800   33.4600 C   0  0  0  0  0  0  0  0  0  0  0  0
   28.1600   26.6300   34.6100 N   0  0  0  0  0  0  0  0  0  0  0  0
   29.4800   26.8500   34.5700 N   0  0  0  0  0  0  0  0  0  0  0  0
   30.1900   26.7800   33.4400 C   0  0  0  0  0  0  0  0  0  0  0  0
   31.5600   27.0500   33.5000 C   0  0  0  0  0  0  0  0  0  0  0  0
   32.2700   27.2400   32.3100 C   0  0  0  0  0  0  0  0  0  0  0  0
   31.6100   27.2500   31.0800 C   0  0  0  0  0  0  0  0  0  0  0  0
   30.2700   26.8700   31.0600 C   0  0  0  0  0  0  0  0  0  0  0  0
   29.5100   26.6900   32.2300 C   0  0  0  0  0  0  0  0  0  0  0  0
   28.1400   26.4100   32.2000 C   0  0  0  0  0  0  0  0  0  0  0  0
   27.4300   26.1300   31.0500 N   0  0  0  0  0  0  0  0  0  0  0  0
   26.4066   27.0838   30.5943 C   0  0  0  0  0  0  0  0  0  0  0  0
   26.1466   26.9845   29.0966 C   0  0  0  0  0  0  0  0  0  0  0  0
   27.4139   26.9891   28.3676 N   0  0  0  0  0  0  0  0  0  0  0  0
   28.0007   28.2631   27.9406 C   0  0  0  0  0  0  0  0  0  0  0  0
   28.0815   25.7416   28.0902 C   0  0  0  0  0  0  0  0  0  0  0  0
   28.6702   25.5440   26.8263 C   0  0  0  0  0  0  0  0  0  0  0  0
   29.2607   24.3252   26.4950 C   0  0  0  0  0  0  0  0  0  0  0  0
   29.8149   24.1510   25.2698 F   0  0  0  0  0  0  0  0  0  0  0  0
   29.2702   23.2827   27.4169 C   0  0  0  0  0  0  0  0  0  0  0  0
   28.7013   23.4587   28.6779 C   0  0  0  0  0  0  0  0  0  0  0  0
   28.1093   24.6852   29.0429 C   0  0  0  0  0  0  0  0  0  0  0  0
   27.6040   24.8376   30.4386 C   0  0  0  0  0  0  0  0  0  0  0  0
   27.4152   23.8062   31.1404 O   0  0  0  0  0  0  0  0  0  0  0  0
  1  2  1  0
  2  3  2  0
  2  4  1  0
  4  5  2  0
  5  6  1  0
  6  7  2  0
  7  8  1  0
  8  9  2  0
  9 10  1  0
 10 11  2  0
 11 12  1  0
 12 13  2  0
 13 14  1  0
 14 15  1  0
 15 16  1  0
 16 17  1  0
 17 18  1  0
 17 19  1  0
 19 20  2  0
 20 21  1  0
 21 22  1  0
 21 23  2  0
 23 24  1  0
 24 25  2  0
 25 26  1  0
 26 27  2  0
 13  4  1  0
 26 14  1  0
 12  7  1  0
 25 19  1  0
M  END
>  <AAScore>  (1) 
2.2060101905540037

>  <RootName>  (1) 
./4ZLY/04_DeltaGEst/trajectory_03/rank_01/lead_0432

$$$$
