confid_7
     RDKit          3D

 28 31  0  0  0  0  0  0  0  0999 V2000
   24.2000   26.2400   35.6900 N   0  0  0  0  0  0  0  0  0  0  0  0
   24.8500   26.2800   34.4800 C   0  0  0  0  0  0  0  0  0  0  0  0
   24.3100   25.7400   33.5400 O   0  0  0  0  0  0  0  0  0  0  0  0
   26.1800   26.9700   34.4700 C   0  0  0  0  0  0  0  0  0  0  0  0
   26.6500   27.6000   35.5500 N   0  0  0  0  0  0  0  0  0  0  0  0
   27.7900   28.2700   35.6200 N   0  0  0  0  0  0  0  0  0  0  0  0
   28.5400   28.3000   34.5100 C   0  0  0  0  0  0  0  0  0  0  0  0
   29.7700   28.9400   34.5600 C   0  0  0  0  0  0  0  0  0  0  0  0
   30.7000   28.8900   33.5000 C   0  0  0  0  0  0  0  0  0  0  0  0
   30.3700   28.1400   32.3700 C   0  0  0  0  0  0  0  0  0  0  0  0
   29.1200   27.5200   32.2800 C   0  0  0  0  0  0  0  0  0  0  0  0
   28.2100   27.6100   33.3300 C   0  0  0  0  0  0  0  0  0  0  0  0
   26.9700   26.9700   33.3100 C   0  0  0  0  0  0  0  0  0  0  0  0
   26.5300   26.2400   32.2200 N   0  0  0  0  0  0  0  0  0  0  0  0
   22.7666   26.1614   35.8315 C   0  0  0  0  0  0  0  0  0  0  0  0
   21.9589   26.3682   34.7458 N   0  0  0  0  0  0  0  0  0  0  0  0
   20.6111   26.3226   34.8747 C   0  0  0  0  0  0  0  0  0  0  0  0
   19.6003   26.5227   33.8019 C   0  0  0  0  0  0  0  0  0  0  0  0
   18.2550   26.3567   34.5570 C   0  0  0  0  0  0  0  0  0  0  0  0
   18.6086   26.0855   35.9515 N   0  0  0  0  0  0  0  0  0  0  0  0
   20.0178   26.0797   36.0715 C   0  0  0  0  0  0  0  0  0  0  0  0
   20.7777   25.8657   37.2182 C   0  0  0  0  0  0  0  0  0  0  0  0
   22.1867   25.9097   37.1052 C   0  0  0  0  0  0  0  0  0  0  0  0
   23.0321   25.7014   38.2090 O   0  0  0  0  0  0  0  0  0  0  0  0
   22.6114   25.5646   39.5669 C   0  0  0  0  0  0  0  0  0  0  0  0
   22.2095   26.9162   40.1502 C   0  0  0  0  0  0  0  0  0  0  0  0
   23.2774   27.7929   40.0868 F   0  0  0  0  0  0  0  0  0  0  0  0
   17.6561   25.8622   37.0325 C   0  0  0  0  0  0  0  0  0  0  0  0
  1  2  1  0
  2  3  2  0
  2  4  1  0
  4  5  2  0
  5  6  1  0
  6  7  2  0
  7  8  1  0
  8  9  2  0
  9 10  1  0
 10 11  2  0
 11 12  1  0
 12 13  2  0
 13 14  1  0
  1 15  1  0
 15 16  2  0
 16 17  1  0
 17 18  1  0
 18 19  1  0
 19 20  1  0
 20 21  1  0
 21 22  1  0
 22 23  2  0
 23 24  1  0
 24 25  1  0
 25 26  1  0
 26 27  1  0
 20 28  1  0
 13  4  1  0
 23 15  1  0
 12  7  1  0
 21 17  2  0
M  END
>  <AAScore>  (1) 
457.1269317188447

>  <RootName>  (1) 
./4ZLY/04_DeltaGEst/trajectory_04/rank_00/lead_0117

$$$$
