confid_5
     RDKit          3D

 26 28  0  0  0  0  0  0  0  0999 V2000
   24.5700   26.8800   35.5900 N   0  0  0  0  0  0  0  0  0  0  0  0
   25.5000   26.4000   34.6900 C   0  0  0  0  0  0  0  0  0  0  0  0
   25.1700   25.5200   33.9100 O   0  0  0  0  0  0  0  0  0  0  0  0
   26.8400   27.0200   34.7400 C   0  0  0  0  0  0  0  0  0  0  0  0
   27.3800   27.2800   35.9400 N   0  0  0  0  0  0  0  0  0  0  0  0
   28.6200   27.7400   36.0300 N   0  0  0  0  0  0  0  0  0  0  0  0
   29.3800   28.0000   34.9600 C   0  0  0  0  0  0  0  0  0  0  0  0
   30.6700   28.5000   35.1300 C   0  0  0  0  0  0  0  0  0  0  0  0
   31.5400   28.6100   34.0300 C   0  0  0  0  0  0  0  0  0  0  0  0
   31.0900   28.2200   32.7700 C   0  0  0  0  0  0  0  0  0  0  0  0
   29.8000   27.7000   32.6000 C   0  0  0  0  0  0  0  0  0  0  0  0
   28.9600   27.5500   33.7100 C   0  0  0  0  0  0  0  0  0  0  0  0
   27.6600   27.0300   33.5900 C   0  0  0  0  0  0  0  0  0  0  0  0
   27.1600   26.7400   32.3400 N   0  0  0  0  0  0  0  0  0  0  0  0
   33.1483   29.2932   34.2436 S   0  0  0  0  0  6  0  0  0  0  0  0
   34.0228   28.9196   33.0786 O   0  0  0  0  0  0  0  0  0  0  0  0
   33.7547   28.7278   35.4976 O   0  0  0  0  0  0  0  0  0  0  0  0
   33.0387   31.0837   34.3738 C   0  0  2  0  0  0  0  0  0  0  0  0
   32.3746   31.7144   33.1045 C   0  0  2  0  0  0  0  0  0  0  0  0
   33.1702   32.8939   32.4756 C   0  0  0  0  0  0  0  0  0  0  0  0
   33.8848   33.8439   33.4659 C   0  0  1  0  0  0  0  0  0  0  0  0
   33.0824   34.9329   33.7562 F   0  0  0  0  0  0  0  0  0  0  0  0
   34.3459   33.1809   34.7760 C   0  0  0  0  0  0  0  0  0  0  0  0
   34.4314   31.6618   34.6586 C   0  0  0  0  0  0  0  0  0  0  0  0
   30.8702   32.0290   33.3111 C   0  0  0  0  0  0  0  0  0  0  0  0
   30.5775   33.2465   34.1883 C   0  0  0  0  0  0  0  0  0  0  0  0
  1  2  1  0
  2  3  2  0
  2  4  1  0
  4  5  2  0
  5  6  1  0
  6  7  2  0
  7  8  1  0
  8  9  2  0
  9 10  1  0
 10 11  2  0
 11 12  1  0
 12 13  2  0
 13 14  1  0
  9 15  1  0
 15 16  2  0
 15 17  2  0
 18 15  1  6
 18 19  1  0
 19 20  1  0
 20 21  1  0
 21 22  1  1
 21 23  1  0
 23 24  1  0
 19 25  1  1
 25 26  1  0
 13  4  1  0
 24 18  1  0
 12  7  1  0
M  END
>  <AAScore>  (1) 
4.717365895482692

>  <RootName>  (1) 
./4ZLY/04_DeltaGEst/trajectory_05/rank_01/lead_0498

$$$$
