confid_1
     RDKit          3D

 26 29  0  0  0  0  0  0  0  0999 V2000
   24.2000   26.2400   35.6900 N   0  0  0  0  0  0  0  0  0  0  0  0
   24.8500   26.2800   34.4800 C   0  0  0  0  0  0  0  0  0  0  0  0
   24.3100   25.7400   33.5400 O   0  0  0  0  0  0  0  0  0  0  0  0
   26.1800   26.9700   34.4700 C   0  0  0  0  0  0  0  0  0  0  0  0
   26.6500   27.6000   35.5500 N   0  0  0  0  0  0  0  0  0  0  0  0
   27.7900   28.2700   35.6200 N   0  0  0  0  0  0  0  0  0  0  0  0
   28.5400   28.3000   34.5100 C   0  0  0  0  0  0  0  0  0  0  0  0
   29.7700   28.9400   34.5600 C   0  0  0  0  0  0  0  0  0  0  0  0
   30.7000   28.8900   33.5000 C   0  0  0  0  0  0  0  0  0  0  0  0
   30.3700   28.1400   32.3700 C   0  0  0  0  0  0  0  0  0  0  0  0
   29.1200   27.5200   32.2800 C   0  0  0  0  0  0  0  0  0  0  0  0
   28.2100   27.6100   33.3300 C   0  0  0  0  0  0  0  0  0  0  0  0
   26.9700   26.9700   33.3100 C   0  0  0  0  0  0  0  0  0  0  0  0
   26.5300   26.2400   32.2200 N   0  0  0  0  0  0  0  0  0  0  0  0
   22.7961   25.9778   35.8466 C   0  0  0  0  0  0  0  0  0  0  0  0
   21.9243   25.8601   34.8200 N   0  0  0  0  0  0  0  0  0  0  0  0
   20.6555   25.6368   35.2576 C   0  0  0  0  0  0  0  0  0  0  0  0
   19.5204   25.4389   34.2992 C   0  0  0  0  0  0  0  0  0  0  0  0
   18.4337   26.5226   34.4398 C   0  0  0  0  0  0  0  0  0  0  0  0
   18.1776   26.9087   35.8472 N   0  0  0  0  0  0  0  0  0  0  0  0
   17.1524   27.9682   35.9743 C   0  0  0  0  0  0  0  0  0  0  0  0
   15.7481   27.5353   35.5284 C   0  0  0  0  0  0  0  0  0  0  0  0
   17.9495   25.7518   36.7415 C   0  0  0  0  0  0  0  0  0  0  0  0
   19.2567   25.3413   37.4469 C   0  0  0  0  0  0  0  0  0  0  0  0
   20.5130   25.5890   36.6496 C   0  0  0  0  0  0  0  0  0  0  0  0
   22.0330   25.8181   37.3358 S   0  0  0  0  0  0  0  0  0  0  0  0
  1  2  1  0
  2  3  2  0
  2  4  1  0
  4  5  2  0
  5  6  1  0
  6  7  2  0
  7  8  1  0
  8  9  2  0
  9 10  1  0
 10 11  2  0
 11 12  1  0
 12 13  2  0
 13 14  1  0
  1 15  1  0
 15 16  2  0
 16 17  1  0
 17 18  1  0
 18 19  1  0
 19 20  1  0
 20 21  1  0
 21 22  1  0
 20 23  1  0
 23 24  1  0
 24 25  1  0
 25 26  1  0
 13  4  1  0
 26 15  1  0
 12  7  1  0
 25 17  2  0
M  END
>  <AAScore>  (1) 
867.2683308412119

>  <RootName>  (1) 
./4ZLY/04_DeltaGEst/trajectory_04/rank_00/lead_0425

$$$$
