confid_17
     RDKit          3D

 31 34  0  0  0  0  0  0  0  0999 V2000
   24.5500   26.3900   36.2500 N   0  0  0  0  0  0  0  0  0  0  0  0
   25.6000   26.1300   35.4000 C   0  0  0  0  0  0  0  0  0  0  0  0
   25.4300   25.4300   34.4200 O   0  0  0  0  0  0  0  0  0  0  0  0
   26.9800   26.6300   35.7100 C   0  0  0  0  0  0  0  0  0  0  0  0
   27.3200   26.8200   36.9800 N   0  0  0  0  0  0  0  0  0  0  0  0
   28.4700   27.4000   37.3100 N   0  0  0  0  0  0  0  0  0  0  0  0
   29.4000   27.6300   36.3700 C   0  0  0  0  0  0  0  0  0  0  0  0
   30.6600   28.0500   36.8000 C   0  0  0  0  0  0  0  0  0  0  0  0
   31.5700   28.3600   35.7800 C   0  0  0  0  0  0  0  0  0  0  0  0
   31.3700   28.1000   34.4300 C   0  0  0  0  0  0  0  0  0  0  0  0
   30.1200   27.5900   34.0500 C   0  0  0  0  0  0  0  0  0  0  0  0
   29.1500   27.3400   35.0300 C   0  0  0  0  0  0  0  0  0  0  0  0
   27.8800   26.8900   34.6600 C   0  0  0  0  0  0  0  0  0  0  0  0
   27.4800   26.6100   33.3700 N   0  0  0  0  0  0  0  0  0  0  0  0
   23.1918   25.8425   36.1079 C   0  0  0  0  0  0  0  0  0  0  0  0
   22.4883   26.4255   34.8668 C   0  0  0  0  0  0  0  0  0  0  0  0
   21.1576   25.7107   34.6133 C   0  0  0  0  0  0  0  0  0  0  0  0
   21.3412   24.2555   34.5158 N   0  0  0  0  0  0  0  0  0  0  0  0
   20.2725   23.4651   33.9651 C   0  0  0  0  0  0  0  0  0  0  0  0
   19.0774   23.7594   34.2394 O   0  0  0  0  0  0  0  0  0  0  0  0
   20.5382   22.3766   32.9630 C   0  0  0  0  0  0  0  0  0  0  0  0
   20.5397   22.9576   31.5756 C   0  0  0  0  0  0  0  0  0  0  0  0
   21.7089   23.5344   31.0528 C   0  0  0  0  0  0  0  0  0  0  0  0
   21.7005   24.1145   29.7813 C   0  0  0  0  0  0  0  0  0  0  0  0
   20.5259   24.1288   29.0244 C   0  0  0  0  0  0  0  0  0  0  0  0
   19.3519   23.5657   29.5404 C   0  0  0  0  0  0  0  0  0  0  0  0
   19.3574   22.9859   30.8162 C   0  0  0  0  0  0  0  0  0  0  0  0
   18.1392   23.5933   28.7653 C   0  0  0  0  0  0  0  0  0  0  0  0
   17.1648   23.6175   28.1419 N   0  0  0  0  0  0  0  0  0  0  0  0
   22.6238   23.6390   34.8853 C   0  0  0  0  0  0  0  0  0  0  0  0
   23.1910   24.2896   36.1545 C   0  0  0  0  0  0  0  0  0  0  0  0
  1  2  1  0
  2  3  2  0
  2  4  1  0
  4  5  2  0
  5  6  1  0
  6  7  2  0
  7  8  1  0
  8  9  2  0
  9 10  1  0
 10 11  2  0
 11 12  1  0
 12 13  2  0
 13 14  1  0
  1 15  1  0
 15 16  1  0
 16 17  1  0
 17 18  1  0
 18 19  1  0
 19 20  2  0
 19 21  1  0
 21 22  1  0
 22 23  2  0
 23 24  1  0
 24 25  2  0
 25 26  1  0
 26 27  2  0
 26 28  1  0
 28 29  3  0
 18 30  1  0
 30 31  1  0
 13  4  1  0
 31 15  1  0
 12  7  1  0
 27 22  1  0
M  END
>  <AAScore>  (1) 
419.13565414074606

>  <RootName>  (1) 
./4ZLY/04_DeltaGEst/trajectory_01/rank_00/lead_0198

$$$$
