confid_13
     RDKit          3D

 27 30  0  0  0  0  0  0  0  0999 V2000
   24.4800   26.1000   36.1300 N   0  0  0  0  0  0  0  0  0  0  0  0
   25.2500   26.2500   34.9900 C   0  0  0  0  0  0  0  0  0  0  0  0
   24.7400   25.7600   33.9900 O   0  0  0  0  0  0  0  0  0  0  0  0
   26.5900   26.8900   34.9600 C   0  0  0  0  0  0  0  0  0  0  0  0
   27.0600   27.2400   36.1600 N   0  0  0  0  0  0  0  0  0  0  0  0
   28.3000   27.7100   36.2400 N   0  0  0  0  0  0  0  0  0  0  0  0
   29.0500   27.9600   35.1500 C   0  0  0  0  0  0  0  0  0  0  0  0
   30.3400   28.4900   35.2600 C   0  0  0  0  0  0  0  0  0  0  0  0
   31.1100   28.8200   34.1400 C   0  0  0  0  0  0  0  0  0  0  0  0
   30.5200   28.6700   32.8800 C   0  0  0  0  0  0  0  0  0  0  0  0
   29.2900   28.0200   32.7700 C   0  0  0  0  0  0  0  0  0  0  0  0
   28.5200   27.7100   33.8900 C   0  0  0  0  0  0  0  0  0  0  0  0
   27.2700   27.0800   33.7600 C   0  0  0  0  0  0  0  0  0  0  0  0
   26.7500   26.8800   32.4900 N   0  0  0  0  0  0  0  0  0  0  0  0
   23.0392   26.0926   36.1563 C   0  0  0  0  0  0  0  0  0  0  0  0
   22.2817   26.7777   35.1586 C   0  0  0  0  0  0  0  0  0  0  0  0
   20.9087   26.7270   35.3065 C   0  0  0  0  0  0  0  0  0  0  0  0
   19.6255   27.1445   34.7761 C   0  0  0  0  0  0  0  0  0  0  0  0
   19.2338   27.8333   33.7985 O   0  0  0  0  0  0  0  0  0  0  0  0
   18.9970   26.4465   35.8459 N   0  0  0  0  0  0  0  0  0  0  0  0
   17.6315   26.2959   36.3234 C   0  0  0  0  0  0  0  0  0  0  0  0
   17.2632   27.4696   37.2292 C   0  0  0  0  0  0  0  0  0  0  0  0
   15.9651   27.2866   37.7625 O   0  0  0  0  0  0  0  0  0  0  0  0
   15.0154   27.9989   37.0007 C   0  0  0  0  0  0  0  0  0  0  0  0
   20.2898   26.0818   36.3362 C   0  0  0  0  0  0  0  0  0  0  0  0
   20.9570   25.4147   37.3428 C   0  0  0  0  0  0  0  0  0  0  0  0
   22.3698   25.4318   37.2418 C   0  0  0  0  0  0  0  0  0  0  0  0
  1  2  1  0
  2  3  2  0
  2  4  1  0
  4  5  2  0
  5  6  1  0
  6  7  2  0
  7  8  1  0
  8  9  2  0
  9 10  1  0
 10 11  2  0
 11 12  1  0
 12 13  2  0
 13 14  1  0
  1 15  1  0
 15 16  2  0
 16 17  1  0
 17 18  1  0
 18 19  2  0
 18 20  1  0
 20 21  1  0
 21 22  1  0
 22 23  1  0
 23 24  1  0
 20 25  1  0
 25 26  1  0
 26 27  2  0
 13  4  1  0
 27 15  1  0
 12  7  1  0
 25 17  2  0
M  END
>  <AAScore>  (1) 
161.98661506909428

>  <RootName>  (1) 
./4ZLY/04_DeltaGEst/trajectory_00/rank_00/lead_0051

$$$$
