confid_19
     RDKit          3D

 29 33  0  0  0  0  0  0  0  0999 V2000
   24.6900   26.1200   35.5300 N   0  0  0  0  0  0  0  0  0  0  0  0
   25.6600   25.6700   34.6600 C   0  0  0  0  0  0  0  0  0  0  0  0
   25.2400   25.0100   33.7200 O   0  0  0  0  0  0  0  0  0  0  0  0
   27.0300   26.2200   34.8800 C   0  0  0  0  0  0  0  0  0  0  0  0
   27.3500   26.7300   36.0700 N   0  0  0  0  0  0  0  0  0  0  0  0
   28.5700   27.1800   36.3300 N   0  0  0  0  0  0  0  0  0  0  0  0
   29.5300   27.1100   35.3900 C   0  0  0  0  0  0  0  0  0  0  0  0
   30.8300   27.5700   35.6500 C   0  0  0  0  0  0  0  0  0  0  0  0
   31.8500   27.5400   34.6900 C   0  0  0  0  0  0  0  0  0  0  0  0
   31.5100   27.1200   33.4000 C   0  0  0  0  0  0  0  0  0  0  0  0
   30.2200   26.6300   33.1100 C   0  0  0  0  0  0  0  0  0  0  0  0
   29.2400   26.6600   34.1000 C   0  0  0  0  0  0  0  0  0  0  0  0
   27.9300   26.2600   33.8100 C   0  0  0  0  0  0  0  0  0  0  0  0
   27.5200   25.7100   32.6100 N   0  0  0  0  0  0  0  0  0  0  0  0
   31.1900   28.0851   36.9940 C   0  0  0  0  0  0  0  0  0  0  0  0
   30.4349   28.9542   37.7813 C   0  0  0  0  0  0  0  0  0  0  0  0
   31.0522   29.2888   38.9963 C   0  0  0  0  0  0  0  0  0  0  0  0
   30.3908   30.1595   40.0326 C   0  0  0  0  0  0  0  0  0  0  0  0
   31.3524   30.8439   40.8184 O   0  0  0  0  0  0  0  0  0  0  0  0
   31.7085   30.0820   41.9600 C   0  0  0  0  0  0  0  0  0  0  0  0
   32.4169   28.8451   41.5861 N   0  0  0  0  0  0  0  0  0  0  0  0
   33.1991   28.8337   40.3428 C   0  0  0  0  0  0  0  0  0  0  0  0
   32.2833   28.6577   39.1743 C   0  0  0  0  0  0  0  0  0  0  0  0
   32.6243   27.7389   37.8105 S   0  0  0  0  0  0  0  0  0  0  0  0
   32.2483   27.6512   42.3831 C   0  0  0  0  0  0  0  0  0  0  0  0
   31.6664   27.7209   43.5006 O   0  0  0  0  0  0  0  0  0  0  0  0
   32.7014   26.3052   41.8786 C   0  0  0  0  0  0  0  0  0  0  0  0
   33.0866   25.2813   42.9402 C   0  0  0  0  0  0  0  0  0  0  0  0
   34.1670   25.9993   42.1521 C   0  0  0  0  0  0  0  0  0  0  0  0
  1  2  1  0
  2  3  2  0
  2  4  1  0
  4  5  2  0
  5  6  1  0
  6  7  2  0
  7  8  1  0
  8  9  2  0
  9 10  1  0
 10 11  2  0
 11 12  1  0
 12 13  2  0
 13 14  1  0
  8 15  1  0
 15 16  2  0
 16 17  1  0
 17 18  1  0
 18 19  1  0
 19 20  1  0
 20 21  1  0
 21 22  1  0
 22 23  1  0
 23 24  1  0
 21 25  1  0
 25 26  2  0
 25 27  1  0
 27 28  1  0
 28 29  1  0
 13  4  1  0
 24 15  1  0
 29 27  1  0
 12  7  1  0
 23 17  2  0
M  END
>  <AAScore>  (1) 
419.8630715512937

>  <RootName>  (1) 
./4ZLY/04_DeltaGEst/trajectory_02/rank_01/lead_0299

$$$$
