confid_6
     RDKit          3D

 27 30  0  0  0  0  0  0  0  0999 V2000
   24.4800   26.1000   36.1300 N   0  0  0  0  0  0  0  0  0  0  0  0
   25.2500   26.2500   34.9900 C   0  0  0  0  0  0  0  0  0  0  0  0
   24.7400   25.7600   33.9900 O   0  0  0  0  0  0  0  0  0  0  0  0
   26.5900   26.8900   34.9600 C   0  0  0  0  0  0  0  0  0  0  0  0
   27.0600   27.2400   36.1600 N   0  0  0  0  0  0  0  0  0  0  0  0
   28.3000   27.7100   36.2400 N   0  0  0  0  0  0  0  0  0  0  0  0
   29.0500   27.9600   35.1500 C   0  0  0  0  0  0  0  0  0  0  0  0
   30.3400   28.4900   35.2600 C   0  0  0  0  0  0  0  0  0  0  0  0
   31.1100   28.8200   34.1400 C   0  0  0  0  0  0  0  0  0  0  0  0
   30.5200   28.6700   32.8800 C   0  0  0  0  0  0  0  0  0  0  0  0
   29.2900   28.0200   32.7700 C   0  0  0  0  0  0  0  0  0  0  0  0
   28.5200   27.7100   33.8900 C   0  0  0  0  0  0  0  0  0  0  0  0
   27.2700   27.0800   33.7600 C   0  0  0  0  0  0  0  0  0  0  0  0
   26.7500   26.8800   32.4900 N   0  0  0  0  0  0  0  0  0  0  0  0
   23.0472   25.9380   36.1349 C   0  0  0  0  0  0  0  0  0  0  0  0
   22.2764   26.1233   35.0392 N   0  0  0  0  0  0  0  0  0  0  0  0
   21.0168   25.9361   35.4799 C   0  0  0  0  0  0  0  0  0  0  0  0
   21.0423   25.6398   36.8253 C   0  0  0  0  0  0  0  0  0  0  0  0
   19.8374   25.4821   37.7106 C   0  0  0  0  0  0  0  0  0  0  0  0
   19.4990   26.7128   38.3211 O   0  0  0  0  0  0  0  0  0  0  0  0
   20.2407   26.9351   39.5090 C   0  0  0  0  0  0  0  0  0  0  0  0
   21.5649   27.6678   39.2103 C   0  0  0  0  0  0  0  0  0  0  0  0
   22.8260   26.7984   39.3943 C   0  0  0  0  0  0  0  0  0  0  0  0
   22.9866   26.5193   40.7413 F   0  0  0  0  0  0  0  0  0  0  0  0
   23.9220   27.5353   38.9799 F   0  0  0  0  0  0  0  0  0  0  0  0
   22.7981   25.4678   38.6186 C   0  0  0  0  0  0  0  0  0  0  0  0
   22.3242   25.6467   37.2421 N   0  0  0  0  0  0  0  0  0  0  0  0
  1  2  1  0
  2  3  2  0
  2  4  1  0
  4  5  2  0
  5  6  1  0
  6  7  2  0
  7  8  1  0
  8  9  2  0
  9 10  1  0
 10 11  2  0
 11 12  1  0
 12 13  2  0
 13 14  1  0
  1 15  1  0
 15 16  2  0
 16 17  1  0
 17 18  2  0
 18 19  1  0
 19 20  1  0
 20 21  1  0
 21 22  1  0
 22 23  1  0
 23 24  1  0
 23 25  1  0
 23 26  1  0
 26 27  1  0
 13  4  1  0
 27 15  1  0
 12  7  1  0
 27 18  1  0
M  END
>  <AAScore>  (1) 
1352.0133850500335

>  <RootName>  (1) 
./4ZLY/04_DeltaGEst/trajectory_00/rank_01/lead_0344

$$$$
