confid_11
     RDKit          3D

 29 32  0  0  0  0  0  0  0  0999 V2000
   24.6900   26.1200   35.5300 N   0  0  0  0  0  0  0  0  0  0  0  0
   25.6600   25.6700   34.6600 C   0  0  0  0  0  0  0  0  0  0  0  0
   25.2400   25.0100   33.7200 O   0  0  0  0  0  0  0  0  0  0  0  0
   27.0300   26.2200   34.8800 C   0  0  0  0  0  0  0  0  0  0  0  0
   27.3500   26.7300   36.0700 N   0  0  0  0  0  0  0  0  0  0  0  0
   28.5700   27.1800   36.3300 N   0  0  0  0  0  0  0  0  0  0  0  0
   29.5300   27.1100   35.3900 C   0  0  0  0  0  0  0  0  0  0  0  0
   30.8300   27.5700   35.6500 C   0  0  0  0  0  0  0  0  0  0  0  0
   31.8500   27.5400   34.6900 C   0  0  0  0  0  0  0  0  0  0  0  0
   31.5100   27.1200   33.4000 C   0  0  0  0  0  0  0  0  0  0  0  0
   30.2200   26.6300   33.1100 C   0  0  0  0  0  0  0  0  0  0  0  0
   29.2400   26.6600   34.1000 C   0  0  0  0  0  0  0  0  0  0  0  0
   27.9300   26.2600   33.8100 C   0  0  0  0  0  0  0  0  0  0  0  0
   27.5200   25.7100   32.6100 N   0  0  0  0  0  0  0  0  0  0  0  0
   31.1475   28.0576   36.9664 N   0  0  0  0  0  0  0  0  0  0  0  0
   31.1808   27.1355   38.1005 C   0  0  0  0  0  0  0  0  0  0  0  0
   30.4568   27.7669   39.2857 C   0  0  0  0  0  0  0  0  0  0  0  0
   30.9032   29.1933   39.5336 C   0  0  0  0  0  0  0  0  0  0  0  0
   30.6731   29.8081   40.7841 C   0  0  0  0  0  0  0  0  0  0  0  0
   30.0800   29.0532   41.8542 N   0  0  0  0  0  0  0  0  0  0  0  0
   30.9415   28.4380   42.8628 C   0  0  0  0  0  0  0  0  0  0  0  0
   28.6358   28.8268   41.8807 C   0  0  0  0  0  0  0  0  0  0  0  0
   31.0201   31.1648   40.9800 C   0  0  0  0  0  0  0  0  0  0  0  0
   30.7781   31.8402   42.3106 C   0  0  0  0  0  0  0  0  0  0  0  0
   31.6432   31.8631   39.9221 C   0  0  0  0  0  0  0  0  0  0  0  0
   31.8318   31.2471   38.7271 N   0  0  0  0  0  0  0  0  0  0  0  0
   31.4688   29.9609   38.4935 C   0  0  0  0  0  0  0  0  0  0  0  0
   31.7526   29.3815   37.1316 C   0  0  0  0  0  0  0  0  0  0  0  0
   32.0868   33.2908   40.0610 C   0  0  0  0  0  0  0  0  0  0  0  0
  1  2  1  0
  2  3  2  0
  2  4  1  0
  4  5  2  0
  5  6  1  0
  6  7  2  0
  7  8  1  0
  8  9  2  0
  9 10  1  0
 10 11  2  0
 11 12  1  0
 12 13  2  0
 13 14  1  0
  8 15  1  0
 15 16  1  0
 16 17  1  0
 17 18  1  0
 18 19  2  0
 19 20  1  0
 20 21  1  0
 20 22  1  0
 19 23  1  0
 23 24  1  0
 23 25  2  0
 25 26  1  0
 26 27  2  0
 27 28  1  0
 25 29  1  0
 13  4  1  0
 28 15  1  0
 12  7  1  0
 27 18  1  0
M  END
>  <AAScore>  (1) 
-5.661657158305157

>  <RootName>  (1) 
./4ZLY/04_DeltaGEst/trajectory_02/rank_01/lead_0006

$$$$
