confid_12
     RDKit          3D

 29 32  0  0  0  0  0  0  0  0999 V2000
   24.5500   26.3900   36.2500 N   0  0  0  0  0  0  0  0  0  0  0  0
   25.6000   26.1300   35.4000 C   0  0  0  0  0  0  0  0  0  0  0  0
   25.4300   25.4300   34.4200 O   0  0  0  0  0  0  0  0  0  0  0  0
   26.9800   26.6300   35.7100 C   0  0  0  0  0  0  0  0  0  0  0  0
   27.3200   26.8200   36.9800 N   0  0  0  0  0  0  0  0  0  0  0  0
   28.4700   27.4000   37.3100 N   0  0  0  0  0  0  0  0  0  0  0  0
   29.4000   27.6300   36.3700 C   0  0  0  0  0  0  0  0  0  0  0  0
   30.6600   28.0500   36.8000 C   0  0  0  0  0  0  0  0  0  0  0  0
   31.5700   28.3600   35.7800 C   0  0  0  0  0  0  0  0  0  0  0  0
   31.3700   28.1000   34.4300 C   0  0  0  0  0  0  0  0  0  0  0  0
   30.1200   27.5900   34.0500 C   0  0  0  0  0  0  0  0  0  0  0  0
   29.1500   27.3400   35.0300 C   0  0  0  0  0  0  0  0  0  0  0  0
   27.8800   26.8900   34.6600 C   0  0  0  0  0  0  0  0  0  0  0  0
   27.4800   26.6100   33.3700 N   0  0  0  0  0  0  0  0  0  0  0  0
   30.9551   28.3441   38.1740 N   0  0  0  0  0  0  0  0  0  0  0  0
   31.8700   27.4539   38.9015 C   0  0  0  0  0  0  0  0  0  0  0  0
   31.6525   27.5022   40.4214 C   0  0  0  0  0  0  0  0  0  0  0  0
   30.1955   27.3619   40.7740 C   0  0  0  0  0  0  0  0  0  0  0  0
   29.5897   26.3593   41.5219 C   0  0  0  0  0  0  0  0  0  0  0  0
   28.2600   26.5780   41.5650 N   0  0  0  0  0  0  0  0  0  0  0  0
   28.0024   27.6861   40.8875 N   0  0  0  0  0  0  0  0  0  0  0  0
   26.6554   28.2474   40.7832 C   0  0  0  0  0  0  0  0  0  0  0  0
   26.4400   29.3175   41.8469 C   0  0  0  0  0  0  0  0  0  0  0  0
   29.1528   28.1986   40.3885 C   0  0  0  0  0  0  0  0  0  0  0  0
   29.2454   29.4785   39.5795 C   0  0  0  0  0  0  0  0  0  0  0  0
   30.5310   29.6281   38.7493 C   0  0  0  0  0  0  0  0  0  0  0  0
   30.2567   25.1434   42.1173 C   0  0  0  0  0  0  0  0  0  0  0  0
   29.4860   24.6275   43.3384 C   0  0  0  0  0  0  0  0  0  0  0  0
   30.3868   24.0460   41.0581 C   0  0  0  0  0  0  0  0  0  0  0  0
  1  2  1  0
  2  3  2  0
  2  4  1  0
  4  5  2  0
  5  6  1  0
  6  7  2  0
  7  8  1  0
  8  9  2  0
  9 10  1  0
 10 11  2  0
 11 12  1  0
 12 13  2  0
 13 14  1  0
  8 15  1  0
 15 16  1  0
 16 17  1  0
 17 18  1  0
 18 19  1  0
 19 20  2  0
 20 21  1  0
 21 22  1  0
 22 23  1  0
 21 24  1  0
 24 25  1  0
 25 26  1  0
 19 27  1  0
 27 28  1  0
 27 29  1  0
 13  4  1  0
 26 15  1  0
 12  7  1  0
 24 18  2  0
M  END
>  <AAScore>  (1) 
418.1034832174296

>  <RootName>  (1) 
./4ZLY/04_DeltaGEst/trajectory_01/rank_01/lead_0485

$$$$
