confid_9
     RDKit          3D

 27 30  0  0  0  0  0  0  0  0999 V2000
   24.2000   26.2400   35.6900 N   0  0  0  0  0  0  0  0  0  0  0  0
   24.8500   26.2800   34.4800 C   0  0  0  0  0  0  0  0  0  0  0  0
   24.3100   25.7400   33.5400 O   0  0  0  0  0  0  0  0  0  0  0  0
   26.1800   26.9700   34.4700 C   0  0  0  0  0  0  0  0  0  0  0  0
   26.6500   27.6000   35.5500 N   0  0  0  0  0  0  0  0  0  0  0  0
   27.7900   28.2700   35.6200 N   0  0  0  0  0  0  0  0  0  0  0  0
   28.5400   28.3000   34.5100 C   0  0  0  0  0  0  0  0  0  0  0  0
   29.7700   28.9400   34.5600 C   0  0  0  0  0  0  0  0  0  0  0  0
   30.7000   28.8900   33.5000 C   0  0  0  0  0  0  0  0  0  0  0  0
   30.3700   28.1400   32.3700 C   0  0  0  0  0  0  0  0  0  0  0  0
   29.1200   27.5200   32.2800 C   0  0  0  0  0  0  0  0  0  0  0  0
   28.2100   27.6100   33.3300 C   0  0  0  0  0  0  0  0  0  0  0  0
   26.9700   26.9700   33.3100 C   0  0  0  0  0  0  0  0  0  0  0  0
   26.5300   26.2400   32.2200 N   0  0  0  0  0  0  0  0  0  0  0  0
   22.7722   26.1567   35.8473 C   0  0  0  0  0  0  0  0  0  0  0  0
   22.2615   25.6060   36.9926 N   0  0  0  0  0  0  0  0  0  0  0  0
   20.9192   25.5174   37.2181 C   0  0  0  0  0  0  0  0  0  0  0  0
   20.0484   26.0129   36.2517 C   0  0  0  0  0  0  0  0  0  0  0  0
   18.5783   26.0529   36.2439 C   0  0  0  0  0  0  0  0  0  0  0  0
   18.1854   26.6819   35.0296 O   0  0  0  0  0  0  0  0  0  0  0  0
   19.3621   27.0283   34.3000 C   0  0  2  0  0  0  0  0  0  0  0  0
   19.4062   28.5522   34.1104 C   0  0  0  0  0  0  0  0  0  0  0  0
   19.3539   26.2977   32.9445 C   0  0  0  0  0  0  0  0  0  0  0  0
   18.1853   26.6366   32.2257 O   0  0  0  0  0  0  0  0  0  0  0  0
   18.1943   25.9774   30.9795 C   0  0  0  0  0  0  0  0  0  0  0  0
   20.5157   26.5780   35.1234 C   0  0  0  0  0  0  0  0  0  0  0  0
   21.8872   26.6806   34.8776 C   0  0  0  0  0  0  0  0  0  0  0  0
  1  2  1  0
  2  3  2  0
  2  4  1  0
  4  5  2  0
  5  6  1  0
  6  7  2  0
  7  8  1  0
  8  9  2  0
  9 10  1  0
 10 11  2  0
 11 12  1  0
 12 13  2  0
 13 14  1  0
  1 15  1  0
 15 16  2  0
 16 17  1  0
 17 18  2  0
 18 19  1  0
 19 20  1  0
 20 21  1  0
 21 22  1  6
 21 23  1  0
 23 24  1  0
 24 25  1  0
 21 26  1  0
 26 27  2  0
 13  4  1  0
 27 15  1  0
 12  7  1  0
 26 18  1  0
M  END
>  <AAScore>  (1) 
71.80374636202147

>  <RootName>  (1) 
./4ZLY/04_DeltaGEst/trajectory_04/rank_00/lead_0327

$$$$
