confid_16
     RDKit          3D

 26 28  0  0  0  0  0  0  0  0999 V2000
   24.5700   26.8800   35.5900 N   0  0  0  0  0  0  0  0  0  0  0  0
   25.5000   26.4000   34.6900 C   0  0  0  0  0  0  0  0  0  0  0  0
   25.1700   25.5200   33.9100 O   0  0  0  0  0  0  0  0  0  0  0  0
   26.8400   27.0200   34.7400 C   0  0  0  0  0  0  0  0  0  0  0  0
   27.3800   27.2800   35.9400 N   0  0  0  0  0  0  0  0  0  0  0  0
   28.6200   27.7400   36.0300 N   0  0  0  0  0  0  0  0  0  0  0  0
   29.3800   28.0000   34.9600 C   0  0  0  0  0  0  0  0  0  0  0  0
   30.6700   28.5000   35.1300 C   0  0  0  0  0  0  0  0  0  0  0  0
   31.5400   28.6100   34.0300 C   0  0  0  0  0  0  0  0  0  0  0  0
   31.0900   28.2200   32.7700 C   0  0  0  0  0  0  0  0  0  0  0  0
   29.8000   27.7000   32.6000 C   0  0  0  0  0  0  0  0  0  0  0  0
   28.9600   27.5500   33.7100 C   0  0  0  0  0  0  0  0  0  0  0  0
   27.6600   27.0300   33.5900 C   0  0  0  0  0  0  0  0  0  0  0  0
   27.1600   26.7400   32.3400 N   0  0  0  0  0  0  0  0  0  0  0  0
   23.2690   26.3085   35.8010 C   0  0  0  0  0  0  0  0  0  0  0  0
   22.3679   26.8390   36.6499 N   0  0  0  0  0  0  0  0  0  0  0  0
   21.3256   25.9936   36.5261 C   0  0  0  0  0  0  0  0  0  0  0  0
   20.1347   26.2125   37.2389 O   0  0  0  0  0  0  0  0  0  0  0  0
   19.1659   25.2364   37.6017 C   0  0  0  0  0  0  0  0  0  0  0  0
   18.2743   25.8056   38.4900 F   0  0  0  0  0  0  0  0  0  0  0  0
   19.7810   24.1626   38.2208 F   0  0  0  0  0  0  0  0  0  0  0  0
   21.5918   24.9943   35.6418 N   0  0  0  0  0  0  0  0  0  0  0  0
   22.8121   25.2082   35.1764 N   0  0  0  0  0  0  0  0  0  0  0  0
   20.6939   23.9780   35.0702 C   0  0  0  0  0  0  0  0  0  0  0  0
   19.7836   24.6187   34.0180 C   0  0  0  0  0  0  0  0  0  0  0  0
   21.4913   22.8220   34.4484 C   0  0  0  0  0  0  0  0  0  0  0  0
  1  2  1  0
  2  3  2  0
  2  4  1  0
  4  5  2  0
  5  6  1  0
  6  7  2  0
  7  8  1  0
  8  9  2  0
  9 10  1  0
 10 11  2  0
 11 12  1  0
 12 13  2  0
 13 14  1  0
  1 15  1  0
 15 16  1  0
 16 17  2  0
 17 18  1  0
 18 19  1  0
 19 20  1  0
 19 21  1  0
 17 22  1  0
 22 23  1  0
 22 24  1  0
 24 25  1  0
 24 26  1  0
 13  4  1  0
 23 15  2  0
 12  7  1  0
M  END
>  <AAScore>  (1) 
40899.6550373706

>  <RootName>  (1) 
./4ZLY/04_DeltaGEst/trajectory_05/rank_00/lead_0244

$$$$
