confid_19
     RDKit          3D

 29 32  0  0  0  0  0  0  0  0999 V2000
   24.6900   26.1200   35.5300 N   0  0  0  0  0  0  0  0  0  0  0  0
   25.6600   25.6700   34.6600 C   0  0  0  0  0  0  0  0  0  0  0  0
   25.2400   25.0100   33.7200 O   0  0  0  0  0  0  0  0  0  0  0  0
   27.0300   26.2200   34.8800 C   0  0  0  0  0  0  0  0  0  0  0  0
   27.3500   26.7300   36.0700 N   0  0  0  0  0  0  0  0  0  0  0  0
   28.5700   27.1800   36.3300 N   0  0  0  0  0  0  0  0  0  0  0  0
   29.5300   27.1100   35.3900 C   0  0  0  0  0  0  0  0  0  0  0  0
   30.8300   27.5700   35.6500 C   0  0  0  0  0  0  0  0  0  0  0  0
   31.8500   27.5400   34.6900 C   0  0  0  0  0  0  0  0  0  0  0  0
   31.5100   27.1200   33.4000 C   0  0  0  0  0  0  0  0  0  0  0  0
   30.2200   26.6300   33.1100 C   0  0  0  0  0  0  0  0  0  0  0  0
   29.2400   26.6600   34.1000 C   0  0  0  0  0  0  0  0  0  0  0  0
   27.9300   26.2600   33.8100 C   0  0  0  0  0  0  0  0  0  0  0  0
   27.5200   25.7100   32.6100 N   0  0  0  0  0  0  0  0  0  0  0  0
   31.1471   28.0661   36.9592 N   0  0  0  0  0  0  0  0  0  0  0  0
   31.2405   27.1411   38.0948 C   0  0  0  0  0  0  0  0  0  0  0  0
   30.4353   27.6853   39.2794 C   0  0  0  0  0  0  0  0  0  0  0  0
   30.6378   29.1299   39.4443 N   0  0  0  0  0  0  0  0  0  0  0  0
   29.9666   29.8075   40.5104 C   0  0  0  0  0  0  0  0  0  0  0  0
   30.5363   30.1124   41.7292 C   0  0  0  0  0  0  0  0  0  0  0  0
   29.5618   30.8038   42.4265 C   0  0  0  0  0  0  0  0  0  0  0  0
   28.4573   30.9104   41.5990 C   0  0  0  0  0  0  0  0  0  0  0  0
   28.7068   30.2856   40.4308 N   0  0  0  0  0  0  0  0  0  0  0  0
   27.8301   30.2826   39.2593 C   0  0  0  0  0  0  0  0  0  0  0  0
   28.0074   31.5684   38.4606 C   0  0  0  0  0  0  0  0  0  0  0  0
   29.7222   31.4395   43.7730 C   0  0  0  0  0  0  0  0  0  0  0  0
   30.2750   32.8539   43.6378 C   0  0  0  0  0  0  0  0  0  0  0  0
   31.6036   29.8554   38.6152 C   0  0  0  0  0  0  0  0  0  0  0  0
   31.3862   29.5043   37.1395 C   0  0  0  0  0  0  0  0  0  0  0  0
  1  2  1  0
  2  3  2  0
  2  4  1  0
  4  5  2  0
  5  6  1  0
  6  7  2  0
  7  8  1  0
  8  9  2  0
  9 10  1  0
 10 11  2  0
 11 12  1  0
 12 13  2  0
 13 14  1  0
  8 15  1  0
 15 16  1  0
 16 17  1  0
 17 18  1  0
 18 19  1  0
 19 20  2  0
 20 21  1  0
 21 22  2  0
 22 23  1  0
 23 24  1  0
 24 25  1  0
 21 26  1  0
 26 27  1  0
 18 28  1  0
 28 29  1  0
 13  4  1  0
 29 15  1  0
 12  7  1  0
 23 19  1  0
M  END
>  <AAScore>  (1) 
-1.2432119865894875

>  <RootName>  (1) 
./4ZLY/04_DeltaGEst/trajectory_02/rank_01/lead_0303

$$$$
