confid_3
     RDKit          3D

 28 31  0  0  0  0  0  0  0  0999 V2000
   24.6900   26.1200   35.5300 N   0  0  0  0  0  0  0  0  0  0  0  0
   25.6600   25.6700   34.6600 C   0  0  0  0  0  0  0  0  0  0  0  0
   25.2400   25.0100   33.7200 O   0  0  0  0  0  0  0  0  0  0  0  0
   27.0300   26.2200   34.8800 C   0  0  0  0  0  0  0  0  0  0  0  0
   27.3500   26.7300   36.0700 N   0  0  0  0  0  0  0  0  0  0  0  0
   28.5700   27.1800   36.3300 N   0  0  0  0  0  0  0  0  0  0  0  0
   29.5300   27.1100   35.3900 C   0  0  0  0  0  0  0  0  0  0  0  0
   30.8300   27.5700   35.6500 C   0  0  0  0  0  0  0  0  0  0  0  0
   31.8500   27.5400   34.6900 C   0  0  0  0  0  0  0  0  0  0  0  0
   31.5100   27.1200   33.4000 C   0  0  0  0  0  0  0  0  0  0  0  0
   30.2200   26.6300   33.1100 C   0  0  0  0  0  0  0  0  0  0  0  0
   29.2400   26.6600   34.1000 C   0  0  0  0  0  0  0  0  0  0  0  0
   27.9300   26.2600   33.8100 C   0  0  0  0  0  0  0  0  0  0  0  0
   27.5200   25.7100   32.6100 N   0  0  0  0  0  0  0  0  0  0  0  0
   31.1819   28.0678   37.0028 C   0  0  0  0  0  0  0  0  0  0  0  0
   31.0325   27.2338   38.1218 C   0  0  0  0  0  0  0  0  0  0  0  0
   31.3793   27.6848   39.3995 C   0  0  0  0  0  0  0  0  0  0  0  0
   31.1745   26.8376   40.4918 O   0  0  0  0  0  0  0  0  0  0  0  0
   32.2355   26.3139   41.2897 C   0  0  0  0  0  0  0  0  0  0  0  0
   33.2896   27.3670   41.6369 C   0  0  0  0  0  0  0  0  0  0  0  0
   32.6579   28.6459   41.9780 N   0  0  0  0  0  0  0  0  0  0  0  0
   32.6142   29.1014   43.3698 C   0  0  0  0  0  0  0  0  0  0  0  0
   32.1846   29.5152   40.9300 C   0  0  0  0  0  0  0  0  0  0  0  0
   32.0377   30.7468   41.1625 O   0  0  0  0  0  0  0  0  0  0  0  0
   31.8714   28.9942   39.5770 C   0  0  0  0  0  0  0  0  0  0  0  0
   32.0093   29.8303   38.4565 C   0  0  0  0  0  0  0  0  0  0  0  0
   31.6779   29.3704   37.1792 C   0  0  0  0  0  0  0  0  0  0  0  0
   31.8157   30.2059   36.1181 F   0  0  0  0  0  0  0  0  0  0  0  0
  1  2  1  0
  2  3  2  0
  2  4  1  0
  4  5  2  0
  5  6  1  0
  6  7  2  0
  7  8  1  0
  8  9  2  0
  9 10  1  0
 10 11  2  0
 11 12  1  0
 12 13  2  0
 13 14  1  0
  8 15  1  0
 15 16  2  0
 16 17  1  0
 17 18  1  0
 18 19  1  0
 19 20  1  0
 20 21  1  0
 21 22  1  0
 21 23  1  0
 23 24  2  0
 23 25  1  0
 25 26  1  0
 26 27  2  0
 27 28  1  0
 13  4  1  0
 27 15  1  0
 12  7  1  0
 25 17  2  0
M  END
>  <AAScore>  (1) 
21.67326323671895

>  <RootName>  (1) 
./4ZLY/04_DeltaGEst/trajectory_02/rank_01/lead_0309

$$$$
