confid_19
     RDKit          3D

 30 33  0  0  0  0  0  0  0  0999 V2000
   24.5500   26.3900   36.2500 N   0  0  0  0  0  0  0  0  0  0  0  0
   25.6000   26.1300   35.4000 C   0  0  0  0  0  0  0  0  0  0  0  0
   25.4300   25.4300   34.4200 O   0  0  0  0  0  0  0  0  0  0  0  0
   26.9800   26.6300   35.7100 C   0  0  0  0  0  0  0  0  0  0  0  0
   27.3200   26.8200   36.9800 N   0  0  0  0  0  0  0  0  0  0  0  0
   28.4700   27.4000   37.3100 N   0  0  0  0  0  0  0  0  0  0  0  0
   29.4000   27.6300   36.3700 C   0  0  0  0  0  0  0  0  0  0  0  0
   30.6600   28.0500   36.8000 C   0  0  0  0  0  0  0  0  0  0  0  0
   31.5700   28.3600   35.7800 C   0  0  0  0  0  0  0  0  0  0  0  0
   31.3700   28.1000   34.4300 C   0  0  0  0  0  0  0  0  0  0  0  0
   30.1200   27.5900   34.0500 C   0  0  0  0  0  0  0  0  0  0  0  0
   29.1500   27.3400   35.0300 C   0  0  0  0  0  0  0  0  0  0  0  0
   27.8800   26.8900   34.6600 C   0  0  0  0  0  0  0  0  0  0  0  0
   27.4800   26.6100   33.3700 N   0  0  0  0  0  0  0  0  0  0  0  0
   31.0014   28.3119   38.2181 C   0  0  0  0  0  0  0  0  0  0  0  0
   32.0560   27.5996   38.8062 C   0  0  0  0  0  0  0  0  0  0  0  0
   32.4119   27.8268   40.1418 C   0  0  0  0  0  0  0  0  0  0  0  0
   33.5102   27.0348   40.7833 C   0  0  0  0  0  0  0  0  0  0  0  0
   34.2899   27.9185   41.7544 C   0  0  0  0  0  0  0  0  0  0  0  0
   33.3936   28.5568   42.7336 N   0  0  0  0  0  0  0  0  0  0  0  0
   33.9276   28.9259   44.0253 C   0  0  0  0  0  0  0  0  0  0  0  0
   35.1778   28.9333   44.2025 O   0  0  0  0  0  0  0  0  0  0  0  0
   33.0198   29.3650   45.1505 C   0  0  0  0  0  0  0  0  0  0  0  0
   33.6704   29.2159   46.5253 C   0  0  0  0  0  0  0  0  0  0  0  0
   32.0216   28.9659   42.3688 C   0  0  0  0  0  0  0  0  0  0  0  0
   31.7045   28.7677   40.9047 C   0  0  0  0  0  0  0  0  0  0  0  0
   30.6483   29.4813   40.3195 C   0  0  0  0  0  0  0  0  0  0  0  0
   30.2995   29.2743   38.9708 C   0  0  0  0  0  0  0  0  0  0  0  0
   29.2759   30.0097   38.3495 O   0  0  0  0  0  0  0  0  0  0  0  0
   28.4811   30.9976   38.9968 C   0  0  0  0  0  0  0  0  0  0  0  0
  1  2  1  0
  2  3  2  0
  2  4  1  0
  4  5  2  0
  5  6  1  0
  6  7  2  0
  7  8  1  0
  8  9  2  0
  9 10  1  0
 10 11  2  0
 11 12  1  0
 12 13  2  0
 13 14  1  0
  8 15  1  0
 15 16  2  0
 16 17  1  0
 17 18  1  0
 18 19  1  0
 19 20  1  0
 20 21  1  0
 21 22  2  0
 21 23  1  0
 23 24  1  0
 20 25  1  0
 25 26  1  0
 26 27  1  0
 27 28  2  0
 28 29  1  0
 29 30  1  0
 13  4  1  0
 28 15  1  0
 12  7  1  0
 26 17  2  0
M  END
>  <AAScore>  (1) 
1057.879231739454

>  <RootName>  (1) 
./4ZLY/04_DeltaGEst/trajectory_01/rank_01/lead_0173

$$$$
