confid_12
     RDKit          3D

 29 32  0  0  0  0  0  0  0  0999 V2000
   24.2000   26.2400   35.6900 N   0  0  0  0  0  0  0  0  0  0  0  0
   24.8500   26.2800   34.4800 C   0  0  0  0  0  0  0  0  0  0  0  0
   24.3100   25.7400   33.5400 O   0  0  0  0  0  0  0  0  0  0  0  0
   26.1800   26.9700   34.4700 C   0  0  0  0  0  0  0  0  0  0  0  0
   26.6500   27.6000   35.5500 N   0  0  0  0  0  0  0  0  0  0  0  0
   27.7900   28.2700   35.6200 N   0  0  0  0  0  0  0  0  0  0  0  0
   28.5400   28.3000   34.5100 C   0  0  0  0  0  0  0  0  0  0  0  0
   29.7700   28.9400   34.5600 C   0  0  0  0  0  0  0  0  0  0  0  0
   30.7000   28.8900   33.5000 C   0  0  0  0  0  0  0  0  0  0  0  0
   30.3700   28.1400   32.3700 C   0  0  0  0  0  0  0  0  0  0  0  0
   29.1200   27.5200   32.2800 C   0  0  0  0  0  0  0  0  0  0  0  0
   28.2100   27.6100   33.3300 C   0  0  0  0  0  0  0  0  0  0  0  0
   26.9700   26.9700   33.3100 C   0  0  0  0  0  0  0  0  0  0  0  0
   26.5300   26.2400   32.2200 N   0  0  0  0  0  0  0  0  0  0  0  0
   23.3212   25.1802   36.1223 C   0  0  0  0  0  0  0  0  0  0  0  0
   23.0377   24.1961   35.3160 N   0  0  0  0  0  0  0  0  0  0  0  0
   22.2523   23.0467   35.6441 C   0  0  0  0  0  0  0  0  0  0  0  0
   21.0793   22.7417   35.0501 C   0  0  0  0  0  0  0  0  0  0  0  0
   20.4543   21.3988   35.3329 C   0  0  0  0  0  0  0  0  0  0  0  0
   19.7527   20.9081   34.1376 N   0  0  0  0  0  0  0  0  0  0  0  0
   18.7155   21.8312   33.6237 C   0  0  0  0  0  0  0  0  0  0  0  0
   18.8695   23.2945   34.0878 C   0  0  0  0  0  0  0  0  0  0  0  0
   20.2832   23.6564   34.2543 N   0  0  0  0  0  0  0  0  0  0  0  0
   20.7372   24.9629   33.7521 C   0  0  0  0  0  0  0  0  0  0  0  0
   20.5229   26.1165   34.7626 C   0  0  0  0  0  0  0  0  0  0  0  0
   20.0511   25.5794   36.4625 S   0  0  0  0  0  0  0  0  0  0  0  0
   21.4641   26.2943   37.3844 C   0  0  0  0  0  0  0  0  0  0  0  0
   22.6454   25.3212   37.4655 C   0  0  0  0  0  0  0  0  0  0  0  0
   20.6732   20.7079   33.1628 F   0  0  0  0  0  0  0  0  0  0  0  0
  1  2  1  0
  2  3  2  0
  2  4  1  0
  4  5  2  0
  5  6  1  0
  6  7  2  0
  7  8  1  0
  8  9  2  0
  9 10  1  0
 10 11  2  0
 11 12  1  0
 12 13  2  0
 13 14  1  0
  1 15  1  0
 15 16  2  0
 16 17  1  0
 17 18  2  0
 18 19  1  0
 19 20  1  0
 20 21  1  0
 21 22  1  0
 22 23  1  0
 23 24  1  0
 24 25  1  0
 25 26  1  0
 26 27  1  0
 27 28  1  0
 20 29  1  0
 13  4  1  0
 28 15  1  0
 12  7  1  0
 23 18  1  0
M  END
>  <AAScore>  (1) 
1368.1304742813795

>  <RootName>  (1) 
./4ZLY/04_DeltaGEst/trajectory_04/rank_00/lead_0134

$$$$
