confid_5
     RDKit          3D

 27 31  0  0  0  0  0  0  0  0999 V2000
   24.5700   26.8800   35.5900 N   0  0  0  0  0  0  0  0  0  0  0  0
   25.5000   26.4000   34.6900 C   0  0  0  0  0  0  0  0  0  0  0  0
   25.1700   25.5200   33.9100 O   0  0  0  0  0  0  0  0  0  0  0  0
   26.8400   27.0200   34.7400 C   0  0  0  0  0  0  0  0  0  0  0  0
   27.3800   27.2800   35.9400 N   0  0  0  0  0  0  0  0  0  0  0  0
   28.6200   27.7400   36.0300 N   0  0  0  0  0  0  0  0  0  0  0  0
   29.3800   28.0000   34.9600 C   0  0  0  0  0  0  0  0  0  0  0  0
   30.6700   28.5000   35.1300 C   0  0  0  0  0  0  0  0  0  0  0  0
   31.5400   28.6100   34.0300 C   0  0  0  0  0  0  0  0  0  0  0  0
   31.0900   28.2200   32.7700 C   0  0  0  0  0  0  0  0  0  0  0  0
   29.8000   27.7000   32.6000 C   0  0  0  0  0  0  0  0  0  0  0  0
   28.9600   27.5500   33.7100 C   0  0  0  0  0  0  0  0  0  0  0  0
   27.6600   27.0300   33.5900 C   0  0  0  0  0  0  0  0  0  0  0  0
   27.1600   26.7400   32.3400 N   0  0  0  0  0  0  0  0  0  0  0  0
   23.2198   26.3908   35.7097 C   0  0  0  0  0  0  0  0  0  0  0  0
   22.6931   25.4349   34.9123 N   0  0  0  0  0  0  0  0  0  0  0  0
   21.4317   25.2887   35.3693 C   0  0  0  0  0  0  0  0  0  0  0  0
   20.4569   24.2725   34.8350 C   0  0  2  0  0  0  0  0  0  0  0  0
   20.7694   23.9156   33.5050 O   0  0  0  0  0  0  0  0  0  0  0  0
   19.5503   24.4518   33.0457 C   0  0  0  0  0  0  0  0  0  0  0  0
   19.1209   24.8699   34.4309 C   0  0  0  0  0  0  0  0  0  0  0  0
   20.3171   23.0656   35.7929 C   0  0  0  0  0  0  0  0  0  0  0  0
   21.4291   22.0304   35.6971 C   0  0  0  0  0  0  0  0  0  0  0  0
   20.0353   21.6970   35.1851 C   0  0  0  0  0  0  0  0  0  0  0  0
   21.2184   26.1317   36.4410 C   0  0  0  0  0  0  0  0  0  0  0  0
   22.3465   26.8329   36.6418 N   0  0  0  0  0  0  0  0  0  0  0  0
   22.5771   27.8254   37.6864 C   0  0  0  0  0  0  0  0  0  0  0  0
  1  2  1  0
  2  3  2  0
  2  4  1  0
  4  5  2  0
  5  6  1  0
  6  7  2  0
  7  8  1  0
  8  9  2  0
  9 10  1  0
 10 11  2  0
 11 12  1  0
 12 13  2  0
 13 14  1  0
  1 15  1  0
 15 16  2  0
 16 17  1  0
 17 18  1  0
 18 19  1  0
 19 20  1  0
 20 21  1  0
 18 22  1  1
 22 23  1  0
 23 24  1  0
 17 25  2  0
 25 26  1  0
 26 27  1  0
 13  4  1  0
 26 15  1  0
 12  7  1  0
 21 18  1  0
 24 22  1  0
M  END
>  <AAScore>  (1) 
2396.8377444277303

>  <RootName>  (1) 
./4ZLY/04_DeltaGEst/trajectory_05/rank_00/lead_0439

$$$$
