confid_5
     RDKit          3D

 29 32  0  0  0  0  0  0  0  0999 V2000
   24.5500   26.3900   36.2500 N   0  0  0  0  0  0  0  0  0  0  0  0
   25.6000   26.1300   35.4000 C   0  0  0  0  0  0  0  0  0  0  0  0
   25.4300   25.4300   34.4200 O   0  0  0  0  0  0  0  0  0  0  0  0
   26.9800   26.6300   35.7100 C   0  0  0  0  0  0  0  0  0  0  0  0
   27.3200   26.8200   36.9800 N   0  0  0  0  0  0  0  0  0  0  0  0
   28.4700   27.4000   37.3100 N   0  0  0  0  0  0  0  0  0  0  0  0
   29.4000   27.6300   36.3700 C   0  0  0  0  0  0  0  0  0  0  0  0
   30.6600   28.0500   36.8000 C   0  0  0  0  0  0  0  0  0  0  0  0
   31.5700   28.3600   35.7800 C   0  0  0  0  0  0  0  0  0  0  0  0
   31.3700   28.1000   34.4300 C   0  0  0  0  0  0  0  0  0  0  0  0
   30.1200   27.5900   34.0500 C   0  0  0  0  0  0  0  0  0  0  0  0
   29.1500   27.3400   35.0300 C   0  0  0  0  0  0  0  0  0  0  0  0
   27.8800   26.8900   34.6600 C   0  0  0  0  0  0  0  0  0  0  0  0
   27.4800   26.6100   33.3700 N   0  0  0  0  0  0  0  0  0  0  0  0
   30.9758   28.3109   38.1798 N   0  0  0  0  0  0  0  0  0  0  0  0
   30.1490   29.2313   38.9728 C   0  0  0  0  0  0  0  0  0  0  0  0
   31.0386   30.1383   39.8316 C   0  0  0  0  0  0  0  0  0  0  0  0
   32.1100   29.3776   40.4920 N   0  0  0  0  0  0  0  0  0  0  0  0
   33.1158   30.0801   41.2397 C   0  0  0  0  0  0  0  0  0  0  0  0
   34.4542   30.0464   40.8161 C   0  0  0  0  0  0  0  0  0  0  0  0
   35.4382   30.7358   41.5311 C   0  0  0  0  0  0  0  0  0  0  0  0
   36.7277   30.7023   41.1137 F   0  0  0  0  0  0  0  0  0  0  0  0
   35.0928   31.4613   42.6744 C   0  0  0  0  0  0  0  0  0  0  0  0
   33.7636   31.4967   43.1061 C   0  0  0  0  0  0  0  0  0  0  0  0
   33.4352   32.1944   44.2216 F   0  0  0  0  0  0  0  0  0  0  0  0
   32.7748   30.8088   42.3931 C   0  0  0  0  0  0  0  0  0  0  0  0
   31.4952   30.8263   42.8434 F   0  0  0  0  0  0  0  0  0  0  0  0
   32.2254   27.9292   40.2852 C   0  0  0  0  0  0  0  0  0  0  0  0
   32.1140   27.6106   38.7922 C   0  0  0  0  0  0  0  0  0  0  0  0
  1  2  1  0
  2  3  2  0
  2  4  1  0
  4  5  2  0
  5  6  1  0
  6  7  2  0
  7  8  1  0
  8  9  2  0
  9 10  1  0
 10 11  2  0
 11 12  1  0
 12 13  2  0
 13 14  1  0
  8 15  1  0
 15 16  1  0
 16 17  1  0
 17 18  1  0
 18 19  1  0
 19 20  2  0
 20 21  1  0
 21 22  1  0
 21 23  2  0
 23 24  1  0
 24 25  1  0
 24 26  2  0
 26 27  1  0
 18 28  1  0
 28 29  1  0
 13  4  1  0
 29 15  1  0
 12  7  1  0
 26 19  1  0
M  END
>  <AAScore>  (1) 
2284.7645739767995

>  <RootName>  (1) 
./4ZLY/04_DeltaGEst/trajectory_01/rank_01/lead_0457

$$$$
