confid_12
     RDKit          3D

 30 34  0  0  0  0  0  0  0  0999 V2000
   25.3300   26.2600   34.7600 N   0  0  0  0  0  0  0  0  0  0  0  0
   26.1200   25.9200   33.6900 C   0  0  0  0  0  0  0  0  0  0  0  0
   25.6300   25.1100   32.9400 O   0  0  0  0  0  0  0  0  0  0  0  0
   27.5200   26.3800   33.4600 C   0  0  0  0  0  0  0  0  0  0  0  0
   28.1600   26.6300   34.6100 N   0  0  0  0  0  0  0  0  0  0  0  0
   29.4800   26.8500   34.5700 N   0  0  0  0  0  0  0  0  0  0  0  0
   30.1900   26.7800   33.4400 C   0  0  0  0  0  0  0  0  0  0  0  0
   31.5600   27.0500   33.5000 C   0  0  0  0  0  0  0  0  0  0  0  0
   32.2700   27.2400   32.3100 C   0  0  0  0  0  0  0  0  0  0  0  0
   31.6100   27.2500   31.0800 C   0  0  0  0  0  0  0  0  0  0  0  0
   30.2700   26.8700   31.0600 C   0  0  0  0  0  0  0  0  0  0  0  0
   29.5100   26.6900   32.2300 C   0  0  0  0  0  0  0  0  0  0  0  0
   28.1400   26.4100   32.2000 C   0  0  0  0  0  0  0  0  0  0  0  0
   27.4300   26.1300   31.0500 N   0  0  0  0  0  0  0  0  0  0  0  0
   26.5310   27.1470   30.4928 C   0  0  0  0  0  0  0  0  0  0  0  0
   26.2157   26.8447   29.0274 C   0  0  0  0  0  0  0  0  0  0  0  0
   27.4379   26.3512   28.3678 N   0  0  0  0  0  0  0  0  0  0  0  0
   27.2726   26.3607   26.9005 C   0  0  0  0  0  0  0  0  0  0  0  0
   28.5835   26.1075   26.2168 C   0  0  0  0  0  0  0  0  0  0  0  0
   29.5970   26.9980   26.1715 N   0  0  0  0  0  0  0  0  0  0  0  0
   30.5877   26.3439   25.5223 C   0  0  0  0  0  0  0  0  0  0  0  0
   30.2391   25.0885   25.1672 N   0  0  0  0  0  0  0  0  0  0  0  0
   31.0424   24.1429   24.3904 C   0  0  0  0  0  0  0  0  0  0  0  0
   30.1815   23.4765   23.3080 C   0  0  0  0  0  0  0  0  0  0  0  0
   29.2981   22.3259   23.8285 C   0  0  0  0  0  0  0  0  0  0  0  0
   28.7765   22.4901   25.2648 C   0  0  0  0  0  0  0  0  0  0  0  0
   28.2087   23.7756   25.4952 O   0  0  0  0  0  0  0  0  0  0  0  0
   28.9819   24.9345   25.6193 C   0  0  0  0  0  0  0  0  0  0  0  0
   27.7920   24.9962   28.8626 C   0  0  0  0  0  0  0  0  0  0  0  0
   27.5822   24.8307   30.3841 C   0  0  0  0  0  0  0  0  0  0  0  0
  1  2  1  0
  2  3  2  0
  2  4  1  0
  4  5  2  0
  5  6  1  0
  6  7  2  0
  7  8  1  0
  8  9  2  0
  9 10  1  0
 10 11  2  0
 11 12  1  0
 12 13  2  0
 13 14  1  0
 14 15  1  0
 15 16  1  0
 16 17  1  0
 17 18  1  0
 18 19  1  0
 19 20  1  0
 20 21  2  0
 21 22  1  0
 22 23  1  0
 23 24  1  0
 24 25  1  0
 25 26  1  0
 26 27  1  0
 27 28  1  0
 17 29  1  0
 29 30  1  0
 13  4  1  0
 30 14  1  0
 12  7  1  0
 28 19  2  0
 28 22  1  0
M  END
>  <AAScore>  (1) 
-0.6890539451792733

>  <RootName>  (1) 
./4ZLY/04_DeltaGEst/trajectory_03/rank_01/lead_0015

$$$$
