confid_3
     RDKit          3D

 29 32  0  0  0  0  0  0  0  0999 V2000
   25.3300   26.2600   34.7600 N   0  0  0  0  0  0  0  0  0  0  0  0
   26.1200   25.9200   33.6900 C   0  0  0  0  0  0  0  0  0  0  0  0
   25.6300   25.1100   32.9400 O   0  0  0  0  0  0  0  0  0  0  0  0
   27.5200   26.3800   33.4600 C   0  0  0  0  0  0  0  0  0  0  0  0
   28.1600   26.6300   34.6100 N   0  0  0  0  0  0  0  0  0  0  0  0
   29.4800   26.8500   34.5700 N   0  0  0  0  0  0  0  0  0  0  0  0
   30.1900   26.7800   33.4400 C   0  0  0  0  0  0  0  0  0  0  0  0
   31.5600   27.0500   33.5000 C   0  0  0  0  0  0  0  0  0  0  0  0
   32.2700   27.2400   32.3100 C   0  0  0  0  0  0  0  0  0  0  0  0
   31.6100   27.2500   31.0800 C   0  0  0  0  0  0  0  0  0  0  0  0
   30.2700   26.8700   31.0600 C   0  0  0  0  0  0  0  0  0  0  0  0
   29.5100   26.6900   32.2300 C   0  0  0  0  0  0  0  0  0  0  0  0
   28.1400   26.4100   32.2000 C   0  0  0  0  0  0  0  0  0  0  0  0
   27.4300   26.1300   31.0500 N   0  0  0  0  0  0  0  0  0  0  0  0
   26.5470   27.1390   30.4604 C   0  0  0  0  0  0  0  0  0  0  0  0
   26.5502   26.9822   28.9357 C   0  0  0  0  0  0  0  0  0  0  0  0
   26.1445   25.6225   28.4923 N   0  0  0  0  0  0  0  0  0  0  0  0
   26.7579   25.2926   27.1876 C   0  0  0  0  0  0  0  0  0  0  0  0
   25.9600   24.2279   26.4792 C   0  0  0  0  0  0  0  0  0  0  0  0
   26.4980   22.9488   26.2730 C   0  0  0  0  0  0  0  0  0  0  0  0
   25.7388   21.9556   25.6478 C   0  0  0  0  0  0  0  0  0  0  0  0
   24.4245   22.2216   25.2152 C   0  0  0  0  0  0  0  0  0  0  0  0
   23.6289   21.1863   24.5908 N   0  0  0  0  0  0  0  0  0  0  0  0
   24.2656   20.1735   23.7411 C   0  0  0  0  0  0  0  0  0  0  0  0
   22.1679   21.1881   24.7167 C   0  0  0  0  0  0  0  0  0  0  0  0
   23.8960   23.5121   25.4131 C   0  0  0  0  0  0  0  0  0  0  0  0
   24.6556   24.5032   26.0418 C   0  0  0  0  0  0  0  0  0  0  0  0
   26.3619   24.5496   29.4986 C   0  0  0  0  0  0  0  0  0  0  0  0
   27.5650   24.8179   30.4104 C   0  0  0  0  0  0  0  0  0  0  0  0
  1  2  1  0
  2  3  2  0
  2  4  1  0
  4  5  2  0
  5  6  1  0
  6  7  2  0
  7  8  1  0
  8  9  2  0
  9 10  1  0
 10 11  2  0
 11 12  1  0
 12 13  2  0
 13 14  1  0
 14 15  1  0
 15 16  1  0
 16 17  1  0
 17 18  1  0
 18 19  1  0
 19 20  2  0
 20 21  1  0
 21 22  2  0
 22 23  1  0
 23 24  1  0
 23 25  1  0
 22 26  1  0
 26 27  2  0
 17 28  1  0
 28 29  1  0
 13  4  1  0
 29 14  1  0
 12  7  1  0
 27 19  1  0
M  END
>  <AAScore>  (1) 
-0.1653268845227952

>  <RootName>  (1) 
./4ZLY/04_DeltaGEst/trajectory_03/rank_01/lead_0363

$$$$
