confid_13
     RDKit          3D

 28 32  0  0  0  0  0  0  0  0999 V2000
   24.6900   26.1200   35.5300 N   0  0  0  0  0  0  0  0  0  0  0  0
   25.6600   25.6700   34.6600 C   0  0  0  0  0  0  0  0  0  0  0  0
   25.2400   25.0100   33.7200 O   0  0  0  0  0  0  0  0  0  0  0  0
   27.0300   26.2200   34.8800 C   0  0  0  0  0  0  0  0  0  0  0  0
   27.3500   26.7300   36.0700 N   0  0  0  0  0  0  0  0  0  0  0  0
   28.5700   27.1800   36.3300 N   0  0  0  0  0  0  0  0  0  0  0  0
   29.5300   27.1100   35.3900 C   0  0  0  0  0  0  0  0  0  0  0  0
   30.8300   27.5700   35.6500 C   0  0  0  0  0  0  0  0  0  0  0  0
   31.8500   27.5400   34.6900 C   0  0  0  0  0  0  0  0  0  0  0  0
   31.5100   27.1200   33.4000 C   0  0  0  0  0  0  0  0  0  0  0  0
   30.2200   26.6300   33.1100 C   0  0  0  0  0  0  0  0  0  0  0  0
   29.2400   26.6600   34.1000 C   0  0  0  0  0  0  0  0  0  0  0  0
   27.9300   26.2600   33.8100 C   0  0  0  0  0  0  0  0  0  0  0  0
   27.5200   25.7100   32.6100 N   0  0  0  0  0  0  0  0  0  0  0  0
   31.1466   28.0612   36.9643 N   0  0  0  0  0  0  0  0  0  0  0  0
   31.1839   27.1247   38.1042 C   0  0  0  0  0  0  0  0  0  0  0  0
   30.4855   27.7325   39.3333 C   0  0  0  0  0  0  0  0  0  0  0  0
   30.9133   29.1565   39.5024 C   0  0  0  0  0  0  0  0  0  0  0  0
   30.7560   30.0187   40.5713 C   0  0  0  0  0  0  0  0  0  0  0  0
   31.1510   31.2587   40.2062 N   0  0  0  0  0  0  0  0  0  0  0  0
   31.5670   31.1950   38.9478 N   0  0  0  0  0  0  0  0  0  0  0  0
   32.0140   32.3584   38.1858 C   0  0  0  0  0  0  0  0  0  0  0  0
   30.8208   33.0685   37.5585 C   0  0  0  0  0  0  0  0  0  0  0  0
   31.4051   29.9369   38.4902 C   0  0  0  0  0  0  0  0  0  0  0  0
   31.7026   29.4172   37.1159 C   0  0  0  0  0  0  0  0  0  0  0  0
   30.1300   29.6905   41.8921 C   0  0  0  0  0  0  0  0  0  0  0  0
   30.8882   30.2098   43.1044 C   0  0  0  0  0  0  0  0  0  0  0  0
   30.9406   28.7334   42.7526 C   0  0  0  0  0  0  0  0  0  0  0  0
  1  2  1  0
  2  3  2  0
  2  4  1  0
  4  5  2  0
  5  6  1  0
  6  7  2  0
  7  8  1  0
  8  9  2  0
  9 10  1  0
 10 11  2  0
 11 12  1  0
 12 13  2  0
 13 14  1  0
  8 15  1  0
 15 16  1  0
 16 17  1  0
 17 18  1  0
 18 19  1  0
 19 20  2  0
 20 21  1  0
 21 22  1  0
 22 23  1  0
 21 24  1  0
 24 25  1  0
 19 26  1  0
 26 27  1  0
 27 28  1  0
 13  4  1  0
 25 15  1  0
 28 26  1  0
 12  7  1  0
 24 18  2  0
M  END
>  <AAScore>  (1) 
-5.846300596762803

>  <RootName>  (1) 
./4ZLY/04_DeltaGEst/trajectory_02/rank_01/lead_0154

$$$$
