confid_17
     RDKit          3D

 30 33  0  0  0  0  0  0  0  0999 V2000
   24.2000   26.2400   35.6900 N   0  0  0  0  0  0  0  0  0  0  0  0
   24.8500   26.2800   34.4800 C   0  0  0  0  0  0  0  0  0  0  0  0
   24.3100   25.7400   33.5400 O   0  0  0  0  0  0  0  0  0  0  0  0
   26.1800   26.9700   34.4700 C   0  0  0  0  0  0  0  0  0  0  0  0
   26.6500   27.6000   35.5500 N   0  0  0  0  0  0  0  0  0  0  0  0
   27.7900   28.2700   35.6200 N   0  0  0  0  0  0  0  0  0  0  0  0
   28.5400   28.3000   34.5100 C   0  0  0  0  0  0  0  0  0  0  0  0
   29.7700   28.9400   34.5600 C   0  0  0  0  0  0  0  0  0  0  0  0
   30.7000   28.8900   33.5000 C   0  0  0  0  0  0  0  0  0  0  0  0
   30.3700   28.1400   32.3700 C   0  0  0  0  0  0  0  0  0  0  0  0
   29.1200   27.5200   32.2800 C   0  0  0  0  0  0  0  0  0  0  0  0
   28.2100   27.6100   33.3300 C   0  0  0  0  0  0  0  0  0  0  0  0
   26.9700   26.9700   33.3100 C   0  0  0  0  0  0  0  0  0  0  0  0
   26.5300   26.2400   32.2200 N   0  0  0  0  0  0  0  0  0  0  0  0
   30.1417   29.6717   35.7382 N   0  0  0  0  0  0  0  0  0  0  0  0
   29.5471   30.9917   35.9831 C   0  0  0  0  0  0  0  0  0  0  0  0
   29.9944   31.5665   37.3313 C   0  0  0  0  0  0  0  0  0  0  0  0
   31.4500   31.4210   37.4943 N   0  0  0  0  0  0  0  0  0  0  0  0
   32.2407   32.4846   38.0613 C   0  0  0  0  0  0  0  0  0  0  0  0
   33.4624   32.5818   37.7641 O   0  0  0  0  0  0  0  0  0  0  0  0
   31.6519   33.4782   38.9832 C   0  0  0  0  0  0  0  0  0  0  0  0
   31.7396   34.8474   38.6726 C   0  0  0  0  0  0  0  0  0  0  0  0
   32.3514   35.2587   37.5327 F   0  0  0  0  0  0  0  0  0  0  0  0
   31.1748   35.8004   39.5252 C   0  0  0  0  0  0  0  0  0  0  0  0
   30.5284   35.3993   40.6955 C   0  0  0  0  0  0  0  0  0  0  0  0
   30.4516   34.0440   41.0228 C   0  0  0  0  0  0  0  0  0  0  0  0
   31.0129   33.0793   40.1774 C   0  0  0  0  0  0  0  0  0  0  0  0
   30.9583   31.3926   40.6813 Cl  0  0  0  0  0  0  0  0  0  0  0  0
   32.1212   30.1735   37.0975 C   0  0  0  0  0  0  0  0  0  0  0  0
   31.1148   29.1007   36.6735 C   0  0  0  0  0  0  0  0  0  0  0  0
  1  2  1  0
  2  3  2  0
  2  4  1  0
  4  5  2  0
  5  6  1  0
  6  7  2  0
  7  8  1  0
  8  9  2  0
  9 10  1  0
 10 11  2  0
 11 12  1  0
 12 13  2  0
 13 14  1  0
  8 15  1  0
 15 16  1  0
 16 17  1  0
 17 18  1  0
 18 19  1  0
 19 20  2  0
 19 21  1  0
 21 22  2  0
 22 23  1  0
 22 24  1  0
 24 25  2  0
 25 26  1  0
 26 27  2  0
 27 28  1  0
 18 29  1  0
 29 30  1  0
 13  4  1  0
 30 15  1  0
 12  7  1  0
 27 21  1  0
M  END
>  <AAScore>  (1) 
-7.846977581244826

>  <RootName>  (1) 
./4ZLY/04_DeltaGEst/trajectory_04/rank_01/lead_0453

$$$$
