confid_18
     RDKit          3D

 29 32  0  0  0  0  0  0  0  0999 V2000
   24.6900   26.1200   35.5300 N   0  0  0  0  0  0  0  0  0  0  0  0
   25.6600   25.6700   34.6600 C   0  0  0  0  0  0  0  0  0  0  0  0
   25.2400   25.0100   33.7200 O   0  0  0  0  0  0  0  0  0  0  0  0
   27.0300   26.2200   34.8800 C   0  0  0  0  0  0  0  0  0  0  0  0
   27.3500   26.7300   36.0700 N   0  0  0  0  0  0  0  0  0  0  0  0
   28.5700   27.1800   36.3300 N   0  0  0  0  0  0  0  0  0  0  0  0
   29.5300   27.1100   35.3900 C   0  0  0  0  0  0  0  0  0  0  0  0
   30.8300   27.5700   35.6500 C   0  0  0  0  0  0  0  0  0  0  0  0
   31.8500   27.5400   34.6900 C   0  0  0  0  0  0  0  0  0  0  0  0
   31.5100   27.1200   33.4000 C   0  0  0  0  0  0  0  0  0  0  0  0
   30.2200   26.6300   33.1100 C   0  0  0  0  0  0  0  0  0  0  0  0
   29.2400   26.6600   34.1000 C   0  0  0  0  0  0  0  0  0  0  0  0
   27.9300   26.2600   33.8100 C   0  0  0  0  0  0  0  0  0  0  0  0
   27.5200   25.7100   32.6100 N   0  0  0  0  0  0  0  0  0  0  0  0
   31.1459   28.0693   36.9586 N   0  0  0  0  0  0  0  0  0  0  0  0
   30.6393   29.3793   37.3837 C   0  0  0  0  0  0  0  0  0  0  0  0
   30.1072   29.2922   38.8172 C   0  0  0  0  0  0  0  0  0  0  0  0
   31.0358   28.5595   39.6876 N   0  0  0  0  0  0  0  0  0  0  0  0
   30.6825   28.3401   41.0597 C   0  0  0  0  0  0  0  0  0  0  0  0
   30.1089   27.1144   41.4248 C   0  0  0  0  0  0  0  0  0  0  0  0
   29.7349   26.8761   42.7483 C   0  0  0  0  0  0  0  0  0  0  0  0
   29.1763   25.6893   43.0916 F   0  0  0  0  0  0  0  0  0  0  0  0
   29.9272   27.8629   43.7165 C   0  0  0  0  0  0  0  0  0  0  0  0
   30.5031   29.0881   43.3681 C   0  0  0  0  0  0  0  0  0  0  0  0
   30.6678   30.0347   44.3270 F   0  0  0  0  0  0  0  0  0  0  0  0
   30.9054   29.3332   42.0412 C   0  0  0  0  0  0  0  0  0  0  0  0
   31.5085   30.6647   41.6793 C   0  0  0  0  0  0  0  0  0  0  0  0
   32.2863   28.0029   39.1607 C   0  0  0  0  0  0  0  0  0  0  0  0
   32.0215   27.2799   37.8362 C   0  0  0  0  0  0  0  0  0  0  0  0
  1  2  1  0
  2  3  2  0
  2  4  1  0
  4  5  2  0
  5  6  1  0
  6  7  2  0
  7  8  1  0
  8  9  2  0
  9 10  1  0
 10 11  2  0
 11 12  1  0
 12 13  2  0
 13 14  1  0
  8 15  1  0
 15 16  1  0
 16 17  1  0
 17 18  1  0
 18 19  1  0
 19 20  2  0
 20 21  1  0
 21 22  1  0
 21 23  2  0
 23 24  1  0
 24 25  1  0
 24 26  2  0
 26 27  1  0
 18 28  1  0
 28 29  1  0
 13  4  1  0
 29 15  1  0
 12  7  1  0
 26 19  1  0
M  END
>  <AAScore>  (1) 
145.6683517872477

>  <RootName>  (1) 
./4ZLY/04_DeltaGEst/trajectory_02/rank_01/lead_0091

$$$$
