confid_1
     RDKit          3D

 28 31  0  0  0  0  0  0  0  0999 V2000
   24.4800   26.1000   36.1300 N   0  0  0  0  0  0  0  0  0  0  0  0
   25.2500   26.2500   34.9900 C   0  0  0  0  0  0  0  0  0  0  0  0
   24.7400   25.7600   33.9900 O   0  0  0  0  0  0  0  0  0  0  0  0
   26.5900   26.8900   34.9600 C   0  0  0  0  0  0  0  0  0  0  0  0
   27.0600   27.2400   36.1600 N   0  0  0  0  0  0  0  0  0  0  0  0
   28.3000   27.7100   36.2400 N   0  0  0  0  0  0  0  0  0  0  0  0
   29.0500   27.9600   35.1500 C   0  0  0  0  0  0  0  0  0  0  0  0
   30.3400   28.4900   35.2600 C   0  0  0  0  0  0  0  0  0  0  0  0
   31.1100   28.8200   34.1400 C   0  0  0  0  0  0  0  0  0  0  0  0
   30.5200   28.6700   32.8800 C   0  0  0  0  0  0  0  0  0  0  0  0
   29.2900   28.0200   32.7700 C   0  0  0  0  0  0  0  0  0  0  0  0
   28.5200   27.7100   33.8900 C   0  0  0  0  0  0  0  0  0  0  0  0
   27.2700   27.0800   33.7600 C   0  0  0  0  0  0  0  0  0  0  0  0
   26.7500   26.8800   32.4900 N   0  0  0  0  0  0  0  0  0  0  0  0
   23.5247   25.0439   36.3542 C   0  0  0  0  0  0  0  0  0  0  0  0
   22.4142   25.2839   37.1700 C   0  0  0  0  0  0  0  0  0  0  0  0
   21.4686   24.2840   37.4367 C   0  0  0  0  0  0  0  0  0  0  0  0
   20.3962   24.6639   38.2606 O   0  0  0  0  0  0  0  0  0  0  0  0
   19.2731   23.8717   38.6184 C   0  0  0  0  0  0  0  0  0  0  0  0
   18.6611   23.2303   37.3806 C   0  0  0  0  0  0  0  0  0  0  0  0
   19.3046   21.9396   37.1340 N   0  0  0  0  0  0  0  0  0  0  0  0
   18.4780   20.7282   37.0045 C   0  0  0  0  0  0  0  0  0  0  0  0
   18.4800   20.2335   35.5618 C   0  0  0  0  0  0  0  0  0  0  0  0
   20.7449   21.8251   37.1098 C   0  0  0  0  0  0  0  0  0  0  0  0
   21.2686   20.6833   37.2376 O   0  0  0  0  0  0  0  0  0  0  0  0
   21.6488   22.9854   36.8761 C   0  0  0  0  0  0  0  0  0  0  0  0
   22.7892   22.7503   36.0829 C   0  0  0  0  0  0  0  0  0  0  0  0
   23.7146   23.7608   35.8268 C   0  0  0  0  0  0  0  0  0  0  0  0
  1  2  1  0
  2  3  2  0
  2  4  1  0
  4  5  2  0
  5  6  1  0
  6  7  2  0
  7  8  1  0
  8  9  2  0
  9 10  1  0
 10 11  2  0
 11 12  1  0
 12 13  2  0
 13 14  1  0
  1 15  1  0
 15 16  2  0
 16 17  1  0
 17 18  1  0
 18 19  1  0
 19 20  1  0
 20 21  1  0
 21 22  1  0
 22 23  1  0
 21 24  1  0
 24 25  2  0
 24 26  1  0
 26 27  1  0
 27 28  2  0
 13  4  1  0
 28 15  1  0
 12  7  1  0
 26 17  2  0
M  END
>  <AAScore>  (1) 
1114.775629364046

>  <RootName>  (1) 
./4ZLY/04_DeltaGEst/trajectory_00/rank_00/lead_0132

$$$$
