confid_18
     RDKit          3D

 31 35  0  0  0  0  0  0  0  0999 V2000
   25.3300   26.2600   34.7600 N   0  0  0  0  0  0  0  0  0  0  0  0
   26.1200   25.9200   33.6900 C   0  0  0  0  0  0  0  0  0  0  0  0
   25.6300   25.1100   32.9400 O   0  0  0  0  0  0  0  0  0  0  0  0
   27.5200   26.3800   33.4600 C   0  0  0  0  0  0  0  0  0  0  0  0
   28.1600   26.6300   34.6100 N   0  0  0  0  0  0  0  0  0  0  0  0
   29.4800   26.8500   34.5700 N   0  0  0  0  0  0  0  0  0  0  0  0
   30.1900   26.7800   33.4400 C   0  0  0  0  0  0  0  0  0  0  0  0
   31.5600   27.0500   33.5000 C   0  0  0  0  0  0  0  0  0  0  0  0
   32.2700   27.2400   32.3100 C   0  0  0  0  0  0  0  0  0  0  0  0
   31.6100   27.2500   31.0800 C   0  0  0  0  0  0  0  0  0  0  0  0
   30.2700   26.8700   31.0600 C   0  0  0  0  0  0  0  0  0  0  0  0
   29.5100   26.6900   32.2300 C   0  0  0  0  0  0  0  0  0  0  0  0
   28.1400   26.4100   32.2000 C   0  0  0  0  0  0  0  0  0  0  0  0
   27.4300   26.1300   31.0500 N   0  0  0  0  0  0  0  0  0  0  0  0
   26.5233   27.1372   30.4906 C   0  0  0  0  0  0  0  0  0  0  0  0
   26.6550   27.1630   28.9659 C   0  0  0  0  0  0  0  0  0  0  0  0
   26.5719   25.8095   28.3900 N   0  0  0  0  0  0  0  0  0  0  0  0
   26.3392   25.6557   26.9732 C   0  0  0  0  0  0  0  0  0  0  0  0
   25.4314   24.6969   26.4984 C   0  0  0  0  0  0  0  0  0  0  0  0
   25.2128   24.5446   25.1292 C   0  0  0  0  0  0  0  0  0  0  0  0
   25.8879   25.3537   24.1995 C   0  0  0  0  0  0  0  0  0  0  0  0
   25.7173   25.0762   22.7243 C   0  0  0  0  0  0  0  0  0  0  0  0
   25.0205   26.1726   22.0140 N   0  0  0  0  0  0  0  0  0  0  0  0
   24.9475   25.8670   20.5749 C   0  0  0  0  0  0  0  0  0  0  0  0
   25.5872   27.5271   22.2379 C   0  0  0  0  0  0  0  0  0  0  0  0
   27.1092   27.5359   22.4632 C   0  0  0  0  0  0  0  0  0  0  0  0
   27.4351   27.2616   23.8267 O   0  0  0  0  0  0  0  0  0  0  0  0
   26.7767   26.3507   24.6714 C   0  0  0  0  0  0  0  0  0  0  0  0
   27.0044   26.4758   26.0475 C   0  0  0  0  0  0  0  0  0  0  0  0
   26.5695   24.6306   29.2705 C   0  0  0  0  0  0  0  0  0  0  0  0
   27.5684   24.8101   30.4187 C   0  0  0  0  0  0  0  0  0  0  0  0
  1  2  1  0
  2  3  2  0
  2  4  1  0
  4  5  2  0
  5  6  1  0
  6  7  2  0
  7  8  1  0
  8  9  2  0
  9 10  1  0
 10 11  2  0
 11 12  1  0
 12 13  2  0
 13 14  1  0
 14 15  1  0
 15 16  1  0
 16 17  1  0
 17 18  1  0
 18 19  2  0
 19 20  1  0
 20 21  2  0
 21 22  1  0
 22 23  1  0
 23 24  1  0
 23 25  1  0
 25 26  1  0
 26 27  1  0
 27 28  1  0
 28 29  2  0
 17 30  1  0
 30 31  1  0
 13  4  1  0
 31 14  1  0
 12  7  1  0
 29 18  1  0
 28 21  1  0
M  END
>  <AAScore>  (1) 
1.923125446575168

>  <RootName>  (1) 
./4ZLY/04_DeltaGEst/trajectory_03/rank_01/lead_0429

$$$$
