confid_4
     RDKit          3D

 27 30  0  0  0  0  0  0  0  0999 V2000
   24.2000   26.2400   35.6900 N   0  0  0  0  0  0  0  0  0  0  0  0
   24.8500   26.2800   34.4800 C   0  0  0  0  0  0  0  0  0  0  0  0
   24.3100   25.7400   33.5400 O   0  0  0  0  0  0  0  0  0  0  0  0
   26.1800   26.9700   34.4700 C   0  0  0  0  0  0  0  0  0  0  0  0
   26.6500   27.6000   35.5500 N   0  0  0  0  0  0  0  0  0  0  0  0
   27.7900   28.2700   35.6200 N   0  0  0  0  0  0  0  0  0  0  0  0
   28.5400   28.3000   34.5100 C   0  0  0  0  0  0  0  0  0  0  0  0
   29.7700   28.9400   34.5600 C   0  0  0  0  0  0  0  0  0  0  0  0
   30.7000   28.8900   33.5000 C   0  0  0  0  0  0  0  0  0  0  0  0
   30.3700   28.1400   32.3700 C   0  0  0  0  0  0  0  0  0  0  0  0
   29.1200   27.5200   32.2800 C   0  0  0  0  0  0  0  0  0  0  0  0
   28.2100   27.6100   33.3300 C   0  0  0  0  0  0  0  0  0  0  0  0
   26.9700   26.9700   33.3100 C   0  0  0  0  0  0  0  0  0  0  0  0
   26.5300   26.2400   32.2200 N   0  0  0  0  0  0  0  0  0  0  0  0
   30.1355   29.6725   35.7411 N   0  0  0  0  0  0  0  0  0  0  0  0
   29.4820   30.9524   36.0408 C   0  0  0  0  0  0  0  0  0  0  0  0
   29.0837   31.0076   37.5206 C   0  0  0  0  0  0  0  0  0  0  0  0
   30.1401   30.4664   38.3878 N   0  0  0  0  0  0  0  0  0  0  0  0
   29.9426   30.4773   39.8104 C   0  0  0  0  0  0  0  0  0  0  0  0
   29.5304   31.5289   40.3708 O   0  0  0  0  0  0  0  0  0  0  0  0
   30.1717   29.2673   40.6215 C   0  0  0  0  0  0  0  0  0  0  0  0
   30.1763   29.2107   42.0115 C   0  0  0  0  0  0  0  0  0  0  0  0
   30.3561   27.9151   42.5129 C   0  0  0  0  0  0  0  0  0  0  0  0
   30.4831   26.9465   41.5257 C   0  0  0  0  0  0  0  0  0  0  0  0
   30.3666   27.7028   40.0292 S   0  0  0  0  0  0  0  0  0  0  0  0
   31.4317   30.0655   37.8160 C   0  0  0  0  0  0  0  0  0  0  0  0
   31.2034   29.1537   36.6067 C   0  0  0  0  0  0  0  0  0  0  0  0
  1  2  1  0
  2  3  2  0
  2  4  1  0
  4  5  2  0
  5  6  1  0
  6  7  2  0
  7  8  1  0
  8  9  2  0
  9 10  1  0
 10 11  2  0
 11 12  1  0
 12 13  2  0
 13 14  1  0
  8 15  1  0
 15 16  1  0
 16 17  1  0
 17 18  1  0
 18 19  1  0
 19 20  2  0
 19 21  1  0
 21 22  2  0
 22 23  1  0
 23 24  2  0
 24 25  1  0
 18 26  1  0
 26 27  1  0
 13  4  1  0
 27 15  1  0
 12  7  1  0
 25 21  1  0
M  END
>  <AAScore>  (1) 
-9.246495694179588

>  <RootName>  (1) 
./4ZLY/04_DeltaGEst/trajectory_04/rank_01/lead_0192

$$$$
