confid_0
     RDKit          3D

 29 33  0  0  0  0  0  0  0  0999 V2000
   25.3300   26.2600   34.7600 N   0  0  0  0  0  0  0  0  0  0  0  0
   26.1200   25.9200   33.6900 C   0  0  0  0  0  0  0  0  0  0  0  0
   25.6300   25.1100   32.9400 O   0  0  0  0  0  0  0  0  0  0  0  0
   27.5200   26.3800   33.4600 C   0  0  0  0  0  0  0  0  0  0  0  0
   28.1600   26.6300   34.6100 N   0  0  0  0  0  0  0  0  0  0  0  0
   29.4800   26.8500   34.5700 N   0  0  0  0  0  0  0  0  0  0  0  0
   30.1900   26.7800   33.4400 C   0  0  0  0  0  0  0  0  0  0  0  0
   31.5600   27.0500   33.5000 C   0  0  0  0  0  0  0  0  0  0  0  0
   32.2700   27.2400   32.3100 C   0  0  0  0  0  0  0  0  0  0  0  0
   31.6100   27.2500   31.0800 C   0  0  0  0  0  0  0  0  0  0  0  0
   30.2700   26.8700   31.0600 C   0  0  0  0  0  0  0  0  0  0  0  0
   29.5100   26.6900   32.2300 C   0  0  0  0  0  0  0  0  0  0  0  0
   28.1400   26.4100   32.2000 C   0  0  0  0  0  0  0  0  0  0  0  0
   27.4300   26.1300   31.0500 N   0  0  0  0  0  0  0  0  0  0  0  0
   26.6732   27.1957   30.3800 C   0  0  0  0  0  0  0  0  0  0  0  0
   25.7049   26.6321   29.3281 C   0  0  0  0  0  0  0  0  0  0  0  0
   26.2351   26.0663   28.1163 O   0  0  0  0  0  0  0  0  0  0  0  0
   27.4234   25.3089   28.0281 C   0  0  0  0  0  0  0  0  0  0  0  0
   27.9843   25.1362   26.7523 C   0  0  0  0  0  0  0  0  0  0  0  0
   29.2175   24.4816   26.5783 C   0  0  0  0  0  0  0  0  0  0  0  0
   29.9038   24.0102   27.7122 C   0  0  0  0  0  0  0  0  0  0  0  0
   29.3335   24.1275   28.9833 C   0  0  0  0  0  0  0  0  0  0  0  0
   28.0762   24.7384   29.1497 C   0  0  0  0  0  0  0  0  0  0  0  0
   27.4638   24.7602   30.5247 C   0  0  0  0  0  0  0  0  0  0  0  0
   29.7761   24.2813   25.2208 C   0  0  0  0  0  0  0  0  0  0  0  0
   30.9633   23.8772   25.0744 O   0  0  0  0  0  0  0  0  0  0  0  0
   28.9949   24.5354   24.0889 O   0  0  0  0  0  0  0  0  0  0  0  0
   24.3527   26.0948   29.7712 C   0  0  0  0  0  0  0  0  0  0  0  0
   24.4484   27.4491   29.0780 C   0  0  0  0  0  0  0  0  0  0  0  0
  1  2  1  0
  2  3  2  0
  2  4  1  0
  4  5  2  0
  5  6  1  0
  6  7  2  0
  7  8  1  0
  8  9  2  0
  9 10  1  0
 10 11  2  0
 11 12  1  0
 12 13  2  0
 13 14  1  0
 14 15  1  0
 15 16  1  0
 16 17  1  0
 17 18  1  0
 18 19  2  0
 19 20  1  0
 20 21  2  0
 21 22  1  0
 22 23  2  0
 23 24  1  0
 20 25  1  0
 25 26  2  0
 25 27  1  0
 16 28  1  0
 28 29  1  0
 13  4  1  0
 24 14  1  0
 12  7  1  0
 29 16  1  0
 23 18  1  0
M  END
>  <AAScore>  (1) 
595.1793907395908

>  <RootName>  (1) 
./4ZLY/04_DeltaGEst/trajectory_03/rank_01/lead_0457

$$$$
