confid_13
     RDKit          3D

 28 31  0  0  0  0  0  0  0  0999 V2000
   25.3300   26.2600   34.7600 N   0  0  0  0  0  0  0  0  0  0  0  0
   26.1200   25.9200   33.6900 C   0  0  0  0  0  0  0  0  0  0  0  0
   25.6300   25.1100   32.9400 O   0  0  0  0  0  0  0  0  0  0  0  0
   27.5200   26.3800   33.4600 C   0  0  0  0  0  0  0  0  0  0  0  0
   28.1600   26.6300   34.6100 N   0  0  0  0  0  0  0  0  0  0  0  0
   29.4800   26.8500   34.5700 N   0  0  0  0  0  0  0  0  0  0  0  0
   30.1900   26.7800   33.4400 C   0  0  0  0  0  0  0  0  0  0  0  0
   31.5600   27.0500   33.5000 C   0  0  0  0  0  0  0  0  0  0  0  0
   32.2700   27.2400   32.3100 C   0  0  0  0  0  0  0  0  0  0  0  0
   31.6100   27.2500   31.0800 C   0  0  0  0  0  0  0  0  0  0  0  0
   30.2700   26.8700   31.0600 C   0  0  0  0  0  0  0  0  0  0  0  0
   29.5100   26.6900   32.2300 C   0  0  0  0  0  0  0  0  0  0  0  0
   28.1400   26.4100   32.2000 C   0  0  0  0  0  0  0  0  0  0  0  0
   27.4300   26.1300   31.0500 N   0  0  0  0  0  0  0  0  0  0  0  0
   24.2200   25.4794   35.2544 C   0  0  0  0  0  0  0  0  0  0  0  0
   24.1471   24.1498   34.9655 N   0  0  0  0  0  0  0  0  0  0  0  0
   23.1544   23.3488   35.4330 C   0  0  0  0  0  0  0  0  0  0  0  0
   23.1186   21.8997   35.0254 C   0  0  0  0  0  0  0  0  0  0  0  0
   22.4193   21.0444   36.0130 N   0  0  0  0  0  0  0  0  0  0  0  0
   23.2489   20.8214   37.2112 C   0  0  0  0  0  0  0  0  0  0  0  0
   21.0659   21.5425   36.3704 C   0  0  2  0  0  0  0  0  0  0  0  0
   20.0785   21.2893   35.2268 C   0  0  0  0  0  0  0  0  0  0  0  0
   21.0744   23.0061   36.7402 C   0  0  0  0  0  0  0  0  0  0  0  0
   20.1475   23.4692   37.4589 O   0  0  0  0  0  0  0  0  0  0  0  0
   22.1423   23.8887   36.2341 C   0  0  0  0  0  0  0  0  0  0  0  0
   22.1892   25.2509   36.5582 C   0  0  0  0  0  0  0  0  0  0  0  0
   23.2239   26.0629   36.0693 C   0  0  0  0  0  0  0  0  0  0  0  0
   23.2560   27.5234   36.4303 C   0  0  0  0  0  0  0  0  0  0  0  0
  1  2  1  0
  2  3  2  0
  2  4  1  0
  4  5  2  0
  5  6  1  0
  6  7  2  0
  7  8  1  0
  8  9  2  0
  9 10  1  0
 10 11  2  0
 11 12  1  0
 12 13  2  0
 13 14  1  0
  1 15  1  0
 15 16  2  0
 16 17  1  0
 17 18  1  0
 18 19  1  0
 19 20  1  0
 19 21  1  0
 21 22  1  6
 21 23  1  0
 23 24  2  0
 23 25  1  0
 25 26  1  0
 26 27  2  0
 27 28  1  0
 13  4  1  0
 27 15  1  0
 12  7  1  0
 25 17  2  0
M  END
>  <AAScore>  (1) 
2168.415412424313

>  <RootName>  (1) 
./4ZLY/04_DeltaGEst/trajectory_03/rank_00/lead_0200

$$$$
