confid_3
     RDKit          3D

 29 32  0  0  0  0  0  0  0  0999 V2000
   24.5500   26.3900   36.2500 N   0  0  0  0  0  0  0  0  0  0  0  0
   25.6000   26.1300   35.4000 C   0  0  0  0  0  0  0  0  0  0  0  0
   25.4300   25.4300   34.4200 O   0  0  0  0  0  0  0  0  0  0  0  0
   26.9800   26.6300   35.7100 C   0  0  0  0  0  0  0  0  0  0  0  0
   27.3200   26.8200   36.9800 N   0  0  0  0  0  0  0  0  0  0  0  0
   28.4700   27.4000   37.3100 N   0  0  0  0  0  0  0  0  0  0  0  0
   29.4000   27.6300   36.3700 C   0  0  0  0  0  0  0  0  0  0  0  0
   30.6600   28.0500   36.8000 C   0  0  0  0  0  0  0  0  0  0  0  0
   31.5700   28.3600   35.7800 C   0  0  0  0  0  0  0  0  0  0  0  0
   31.3700   28.1000   34.4300 C   0  0  0  0  0  0  0  0  0  0  0  0
   30.1200   27.5900   34.0500 C   0  0  0  0  0  0  0  0  0  0  0  0
   29.1500   27.3400   35.0300 C   0  0  0  0  0  0  0  0  0  0  0  0
   27.8800   26.8900   34.6600 C   0  0  0  0  0  0  0  0  0  0  0  0
   27.4800   26.6100   33.3700 N   0  0  0  0  0  0  0  0  0  0  0  0
   23.2661   25.6738   36.1893 C   0  0  0  0  0  0  0  0  0  0  0  0
   22.2011   26.3967   37.0515 C   0  0  0  0  0  0  0  0  0  0  0  0
   22.1729   25.9156   38.5178 C   0  0  0  0  0  0  0  0  0  0  0  0
   23.4598   25.3192   38.9053 N   0  0  0  0  0  0  0  0  0  0  0  0
   24.2474   25.9005   39.9673 C   0  0  0  0  0  0  0  0  0  0  0  0
   24.1104   27.1247   40.2326 O   0  0  0  0  0  0  0  0  0  0  0  0
   25.3076   25.0781   40.6882 C   0  0  0  0  0  0  0  0  0  0  0  0
   25.5056   25.3379   42.1389 N   0  0  0  0  0  0  0  0  0  0  0  0
   26.0033   26.6855   42.4548 C   0  0  2  0  0  0  0  0  0  0  0  0
   27.2911   26.6003   43.2896 C   0  0  0  0  0  0  0  0  0  0  0  0
   27.7933   27.9855   43.6914 C   0  0  0  0  0  0  0  0  0  0  0  0
   24.7571   27.0268   43.2716 C   0  0  0  0  0  0  0  0  0  0  0  0
   24.2885   25.6234   42.9130 C   0  0  0  0  0  0  0  0  0  0  0  0
   23.9824   24.1923   38.1133 C   0  0  0  0  0  0  0  0  0  0  0  0
   23.4415   24.2214   36.6732 C   0  0  0  0  0  0  0  0  0  0  0  0
  1  2  1  0
  2  3  2  0
  2  4  1  0
  4  5  2  0
  5  6  1  0
  6  7  2  0
  7  8  1  0
  8  9  2  0
  9 10  1  0
 10 11  2  0
 11 12  1  0
 12 13  2  0
 13 14  1  0
  1 15  1  0
 15 16  1  0
 16 17  1  0
 17 18  1  0
 18 19  1  0
 19 20  2  0
 19 21  1  0
 21 22  1  0
 22 23  1  0
 23 24  1  1
 24 25  1  0
 23 26  1  0
 26 27  1  0
 18 28  1  0
 28 29  1  0
 13  4  1  0
 29 15  1  0
 12  7  1  0
 27 22  1  0
M  END
>  <AAScore>  (1) 
41.01833680433162

>  <RootName>  (1) 
./4ZLY/04_DeltaGEst/trajectory_01/rank_00/lead_0223

$$$$
