confid_2
     RDKit          3D

 28 32  0  0  0  0  0  0  0  0999 V2000
   24.4800   26.1000   36.1300 N   0  0  0  0  0  0  0  0  0  0  0  0
   25.2500   26.2500   34.9900 C   0  0  0  0  0  0  0  0  0  0  0  0
   24.7400   25.7600   33.9900 O   0  0  0  0  0  0  0  0  0  0  0  0
   26.5900   26.8900   34.9600 C   0  0  0  0  0  0  0  0  0  0  0  0
   27.0600   27.2400   36.1600 N   0  0  0  0  0  0  0  0  0  0  0  0
   28.3000   27.7100   36.2400 N   0  0  0  0  0  0  0  0  0  0  0  0
   29.0500   27.9600   35.1500 C   0  0  0  0  0  0  0  0  0  0  0  0
   30.3400   28.4900   35.2600 C   0  0  0  0  0  0  0  0  0  0  0  0
   31.1100   28.8200   34.1400 C   0  0  0  0  0  0  0  0  0  0  0  0
   30.5200   28.6700   32.8800 C   0  0  0  0  0  0  0  0  0  0  0  0
   29.2900   28.0200   32.7700 C   0  0  0  0  0  0  0  0  0  0  0  0
   28.5200   27.7100   33.8900 C   0  0  0  0  0  0  0  0  0  0  0  0
   27.2700   27.0800   33.7600 C   0  0  0  0  0  0  0  0  0  0  0  0
   26.7500   26.8800   32.4900 N   0  0  0  0  0  0  0  0  0  0  0  0
   23.4432   25.1178   36.2822 C   0  0  0  0  0  0  0  0  0  0  0  0
   22.2288   25.4291   36.7891 N   0  0  0  0  0  0  0  0  0  0  0  0
   21.5765   24.2506   36.8417 C   0  0  0  0  0  0  0  0  0  0  0  0
   22.4138   23.2607   36.3893 C   0  0  0  0  0  0  0  0  0  0  0  0
   22.1053   21.9027   36.3150 O   0  0  0  0  0  0  0  0  0  0  0  0
   21.5808   21.3212   35.1234 C   0  0  0  0  0  0  0  0  0  0  0  0
   22.4701   21.6354   33.9197 C   0  0  0  0  0  0  0  0  0  0  0  0
   23.8780   21.2860   34.2432 N   0  0  0  0  0  0  0  0  0  0  0  0
   24.7789   22.4588   34.2867 C   0  0  0  0  0  0  0  0  0  0  0  0
   24.8210   23.0559   35.7012 C   0  0  0  0  0  0  0  0  0  0  0  0
   23.5949   23.7941   36.0304 N   0  0  0  0  0  0  0  0  0  0  0  0
   24.5355   20.1112   33.6085 C   0  0  0  0  0  0  0  0  0  0  0  0
   24.3354   19.9393   32.1100 C   0  0  0  0  0  0  0  0  0  0  0  0
   23.6651   18.9731   33.0891 C   0  0  0  0  0  0  0  0  0  0  0  0
  1  2  1  0
  2  3  2  0
  2  4  1  0
  4  5  2  0
  5  6  1  0
  6  7  2  0
  7  8  1  0
  8  9  2  0
  9 10  1  0
 10 11  2  0
 11 12  1  0
 12 13  2  0
 13 14  1  0
  1 15  1  0
 15 16  2  0
 16 17  1  0
 17 18  2  0
 18 19  1  0
 19 20  1  0
 20 21  1  0
 21 22  1  0
 22 23  1  0
 23 24  1  0
 24 25  1  0
 22 26  1  0
 26 27  1  0
 27 28  1  0
 13  4  1  0
 25 15  1  0
 28 26  1  0
 12  7  1  0
 25 18  1  0
M  END
>  <AAScore>  (1) 
2751.392170557964

>  <RootName>  (1) 
./4ZLY/04_DeltaGEst/trajectory_00/rank_01/lead_0220

$$$$
