confid_0
     RDKit          3D

 30 34  0  0  0  0  0  0  0  0999 V2000
   24.6900   26.1200   35.5300 N   0  0  0  0  0  0  0  0  0  0  0  0
   25.6600   25.6700   34.6600 C   0  0  0  0  0  0  0  0  0  0  0  0
   25.2400   25.0100   33.7200 O   0  0  0  0  0  0  0  0  0  0  0  0
   27.0300   26.2200   34.8800 C   0  0  0  0  0  0  0  0  0  0  0  0
   27.3500   26.7300   36.0700 N   0  0  0  0  0  0  0  0  0  0  0  0
   28.5700   27.1800   36.3300 N   0  0  0  0  0  0  0  0  0  0  0  0
   29.5300   27.1100   35.3900 C   0  0  0  0  0  0  0  0  0  0  0  0
   30.8300   27.5700   35.6500 C   0  0  0  0  0  0  0  0  0  0  0  0
   31.8500   27.5400   34.6900 C   0  0  0  0  0  0  0  0  0  0  0  0
   31.5100   27.1200   33.4000 C   0  0  0  0  0  0  0  0  0  0  0  0
   30.2200   26.6300   33.1100 C   0  0  0  0  0  0  0  0  0  0  0  0
   29.2400   26.6600   34.1000 C   0  0  0  0  0  0  0  0  0  0  0  0
   27.9300   26.2600   33.8100 C   0  0  0  0  0  0  0  0  0  0  0  0
   27.5200   25.7100   32.6100 N   0  0  0  0  0  0  0  0  0  0  0  0
   23.2662   26.0978   35.2963 C   0  0  0  0  0  0  0  0  0  0  0  0
   22.4718   26.0221   36.3254 N   0  0  0  0  0  0  0  0  0  0  0  0
   21.0399   26.0199   36.2382 C   0  0  0  0  0  0  0  0  0  0  0  0
   20.4109   26.2616   35.0796 C   0  0  0  0  0  0  0  0  0  0  0  0
   18.8930   26.2378   35.0428 C   0  0  0  0  0  0  0  0  0  0  0  0
   18.3658   25.7387   33.7626 N   0  0  0  0  0  0  0  0  0  0  0  0
   17.8205   24.3825   33.6678 C   0  0  0  0  0  0  0  0  0  0  0  0
   18.2837   26.5999   32.6102 C   0  0  0  0  0  0  0  0  0  0  0  0
   17.2925   26.5131   31.8346 O   0  0  0  0  0  0  0  0  0  0  0  0
   19.3624   27.6164   32.3256 C   0  0  2  0  0  0  0  0  0  0  0  0
   19.0318   29.0071   32.9004 C   0  0  0  0  0  0  0  0  0  0  0  0
   19.7849   27.6896   30.8767 C   0  0  0  0  0  0  0  0  0  0  0  0
   21.1504   27.2978   31.3450 C   0  0  0  0  0  0  0  0  0  0  0  0
   20.7177   27.1031   32.7884 C   0  0  0  0  0  0  0  0  0  0  0  0
   21.2489   26.5871   33.8975 C   0  0  0  0  0  0  0  0  0  0  0  0
   22.6953   26.1646   33.8943 C   0  0  0  0  0  0  0  0  0  0  0  0
  1  2  1  0
  2  3  2  0
  2  4  1  0
  4  5  2  0
  5  6  1  0
  6  7  2  0
  7  8  1  0
  8  9  2  0
  9 10  1  0
 10 11  2  0
 11 12  1  0
 12 13  2  0
 13 14  1  0
  1 15  1  0
 15 16  2  0
 16 17  1  0
 17 18  2  0
 18 19  1  0
 19 20  1  0
 20 21  1  0
 20 22  1  0
 22 23  2  0
 22 24  1  0
 24 25  1  1
 24 26  1  0
 26 27  1  0
 27 28  1  0
 28 29  2  0
 29 30  1  0
 13  4  1  0
 30 15  1  0
 12  7  1  0
 29 18  1  0
 28 24  1  0
M  END
>  <AAScore>  (1) 
637.4799386645376

>  <RootName>  (1) 
./4ZLY/04_DeltaGEst/trajectory_02/rank_00/lead_0084

$$$$
