confid_1
     RDKit          3D

 27 30  0  0  0  0  0  0  0  0999 V2000
   24.5700   26.8800   35.5900 N   0  0  0  0  0  0  0  0  0  0  0  0
   25.5000   26.4000   34.6900 C   0  0  0  0  0  0  0  0  0  0  0  0
   25.1700   25.5200   33.9100 O   0  0  0  0  0  0  0  0  0  0  0  0
   26.8400   27.0200   34.7400 C   0  0  0  0  0  0  0  0  0  0  0  0
   27.3800   27.2800   35.9400 N   0  0  0  0  0  0  0  0  0  0  0  0
   28.6200   27.7400   36.0300 N   0  0  0  0  0  0  0  0  0  0  0  0
   29.3800   28.0000   34.9600 C   0  0  0  0  0  0  0  0  0  0  0  0
   30.6700   28.5000   35.1300 C   0  0  0  0  0  0  0  0  0  0  0  0
   31.5400   28.6100   34.0300 C   0  0  0  0  0  0  0  0  0  0  0  0
   31.0900   28.2200   32.7700 C   0  0  0  0  0  0  0  0  0  0  0  0
   29.8000   27.7000   32.6000 C   0  0  0  0  0  0  0  0  0  0  0  0
   28.9600   27.5500   33.7100 C   0  0  0  0  0  0  0  0  0  0  0  0
   27.6600   27.0300   33.5900 C   0  0  0  0  0  0  0  0  0  0  0  0
   27.1600   26.7400   32.3400 N   0  0  0  0  0  0  0  0  0  0  0  0
   23.1757   26.5103   35.5791 C   0  0  0  0  0  0  0  0  0  0  0  0
   22.5827   26.1818   34.3994 N   0  0  0  0  0  0  0  0  0  0  0  0
   21.2646   25.8871   34.3043 C   0  0  0  0  0  0  0  0  0  0  0  0
   20.4496   25.9456   35.4309 C   0  0  0  0  0  0  0  0  0  0  0  0
   19.0900   25.6769   35.2901 O   0  0  0  0  0  0  0  0  0  0  0  0
   18.2036   25.8297   36.3481 C   0  0  0  0  0  0  0  0  0  0  0  0
   16.9767   25.6108   36.1619 O   0  0  0  0  0  0  0  0  0  0  0  0
   18.6855   26.2504   37.6324 N   0  0  0  0  0  0  0  0  0  0  0  0
   17.7342   26.4821   38.7212 C   0  0  0  0  0  0  0  0  0  0  0  0
   20.1256   26.3170   37.9168 C   0  0  0  0  0  0  0  0  0  0  0  0
   21.0062   26.2825   36.6792 C   0  0  0  0  0  0  0  0  0  0  0  0
   22.4026   26.5333   36.7670 C   0  0  0  0  0  0  0  0  0  0  0  0
   23.0622   26.8517   38.0913 C   0  0  0  0  0  0  0  0  0  0  0  0
  1  2  1  0
  2  3  2  0
  2  4  1  0
  4  5  2  0
  5  6  1  0
  6  7  2  0
  7  8  1  0
  8  9  2  0
  9 10  1  0
 10 11  2  0
 11 12  1  0
 12 13  2  0
 13 14  1  0
  1 15  1  0
 15 16  2  0
 16 17  1  0
 17 18  2  0
 18 19  1  0
 19 20  1  0
 20 21  2  0
 20 22  1  0
 22 23  1  0
 22 24  1  0
 24 25  1  0
 25 26  2  0
 26 27  1  0
 13  4  1  0
 26 15  1  0
 12  7  1  0
 25 18  1  0
M  END
>  <AAScore>  (1) 
13354.669409847267

>  <RootName>  (1) 
./4ZLY/04_DeltaGEst/trajectory_05/rank_00/lead_0015

$$$$
