confid_1
     RDKit          3D

 32 35  0  0  0  0  0  0  0  0999 V2000
   24.5500   26.3900   36.2500 N   0  0  0  0  0  0  0  0  0  0  0  0
   25.6000   26.1300   35.4000 C   0  0  0  0  0  0  0  0  0  0  0  0
   25.4300   25.4300   34.4200 O   0  0  0  0  0  0  0  0  0  0  0  0
   26.9800   26.6300   35.7100 C   0  0  0  0  0  0  0  0  0  0  0  0
   27.3200   26.8200   36.9800 N   0  0  0  0  0  0  0  0  0  0  0  0
   28.4700   27.4000   37.3100 N   0  0  0  0  0  0  0  0  0  0  0  0
   29.4000   27.6300   36.3700 C   0  0  0  0  0  0  0  0  0  0  0  0
   30.6600   28.0500   36.8000 C   0  0  0  0  0  0  0  0  0  0  0  0
   31.5700   28.3600   35.7800 C   0  0  0  0  0  0  0  0  0  0  0  0
   31.3700   28.1000   34.4300 C   0  0  0  0  0  0  0  0  0  0  0  0
   30.1200   27.5900   34.0500 C   0  0  0  0  0  0  0  0  0  0  0  0
   29.1500   27.3400   35.0300 C   0  0  0  0  0  0  0  0  0  0  0  0
   27.8800   26.8900   34.6600 C   0  0  0  0  0  0  0  0  0  0  0  0
   27.4800   26.6100   33.3700 N   0  0  0  0  0  0  0  0  0  0  0  0
   23.2906   25.7200   36.1501 C   0  0  0  0  0  0  0  0  0  0  0  0
   22.4543   26.0791   35.2172 N   0  0  0  0  0  0  0  0  0  0  0  0
   21.1604   25.4937   35.0316 C   0  0  0  0  0  0  0  0  0  0  0  0
   20.5683   25.4509   33.8307 C   0  0  0  0  0  0  0  0  0  0  0  0
   21.0371   26.3251   32.6909 C   0  0  0  0  0  0  0  0  0  0  0  0
   19.9127   26.7518   31.8390 N   0  0  0  0  0  0  0  0  0  0  0  0
   18.5864   26.1283   31.9780 C   0  0  0  0  0  0  0  0  0  0  0  0
   18.7080   24.6516   32.3628 C   0  0  0  0  0  0  0  0  0  0  0  0
   19.5268   24.4841   33.5666 N   0  0  0  0  0  0  0  0  0  0  0  0
   19.4883   23.1872   34.2756 C   0  0  0  0  0  0  0  0  0  0  0  0
   20.8085   22.3973   34.0903 C   0  0  0  0  0  0  0  0  0  0  0  0
   21.3363   21.7764   35.3935 C   0  0  0  0  0  0  0  0  0  0  0  0
   21.5680   22.7690   36.3787 O   0  0  0  0  0  0  0  0  0  0  0  0
   22.9160   23.2077   36.3823 C   0  0  0  0  0  0  0  0  0  0  0  0
   23.0182   24.5698   37.1003 C   0  0  0  0  0  0  0  0  0  0  0  0
   20.0940   27.8824   30.9624 C   0  0  0  0  0  0  0  0  0  0  0  0
   21.2603   28.2663   30.6743 O   0  0  0  0  0  0  0  0  0  0  0  0
   18.9306   28.6198   30.3627 C   0  0  0  0  0  0  0  0  0  0  0  0
  1  2  1  0
  2  3  2  0
  2  4  1  0
  4  5  2  0
  5  6  1  0
  6  7  2  0
  7  8  1  0
  8  9  2  0
  9 10  1  0
 10 11  2  0
 11 12  1  0
 12 13  2  0
 13 14  1  0
  1 15  1  0
 15 16  2  0
 16 17  1  0
 17 18  2  0
 18 19  1  0
 19 20  1  0
 20 21  1  0
 21 22  1  0
 22 23  1  0
 23 24  1  0
 24 25  1  0
 25 26  1  0
 26 27  1  0
 27 28  1  0
 28 29  1  0
 20 30  1  0
 30 31  2  0
 30 32  1  0
 13  4  1  0
 29 15  1  0
 12  7  1  0
 23 18  1  0
M  END
>  <AAScore>  (1) 
1684.3493176624957

>  <RootName>  (1) 
./4ZLY/04_DeltaGEst/trajectory_01/rank_00/lead_0193

$$$$
