confid_9
     RDKit          3D

 29 32  0  0  0  0  0  0  0  0999 V2000
   24.5500   26.3900   36.2500 N   0  0  0  0  0  0  0  0  0  0  0  0
   25.6000   26.1300   35.4000 C   0  0  0  0  0  0  0  0  0  0  0  0
   25.4300   25.4300   34.4200 O   0  0  0  0  0  0  0  0  0  0  0  0
   26.9800   26.6300   35.7100 C   0  0  0  0  0  0  0  0  0  0  0  0
   27.3200   26.8200   36.9800 N   0  0  0  0  0  0  0  0  0  0  0  0
   28.4700   27.4000   37.3100 N   0  0  0  0  0  0  0  0  0  0  0  0
   29.4000   27.6300   36.3700 C   0  0  0  0  0  0  0  0  0  0  0  0
   30.6600   28.0500   36.8000 C   0  0  0  0  0  0  0  0  0  0  0  0
   31.5700   28.3600   35.7800 C   0  0  0  0  0  0  0  0  0  0  0  0
   31.3700   28.1000   34.4300 C   0  0  0  0  0  0  0  0  0  0  0  0
   30.1200   27.5900   34.0500 C   0  0  0  0  0  0  0  0  0  0  0  0
   29.1500   27.3400   35.0300 C   0  0  0  0  0  0  0  0  0  0  0  0
   27.8800   26.8900   34.6600 C   0  0  0  0  0  0  0  0  0  0  0  0
   27.4800   26.6100   33.3700 N   0  0  0  0  0  0  0  0  0  0  0  0
   31.0075   28.3126   38.2194 C   0  0  0  0  0  0  0  0  0  0  0  0
   32.1739   27.7629   38.7658 C   0  0  0  0  0  0  0  0  0  0  0  0
   32.5578   28.0033   40.1044 C   0  0  0  0  0  0  0  0  0  0  0  0
   33.7892   27.2316   40.5821 C   0  0  0  0  0  0  0  0  0  0  0  0
   34.8037   27.9496   41.4991 C   0  0  0  0  0  0  0  0  0  0  0  0
   34.3690   28.2128   42.8186 O   0  0  0  0  0  0  0  0  0  0  0  0
   33.8850   27.0617   43.4877 C   0  0  0  0  0  0  0  0  0  0  0  0
   32.3456   27.0018   43.4333 C   0  0  0  0  0  0  0  0  0  0  0  0
   31.7751   28.3536   43.4284 N   0  0  0  0  0  0  0  0  0  0  0  0
   31.1234   28.8853   44.6283 C   0  0  0  0  0  0  0  0  0  0  0  0
   31.9695   29.2331   42.3025 C   0  0  0  0  0  0  0  0  0  0  0  0
   32.2642   30.4419   42.5087 O   0  0  0  0  0  0  0  0  0  0  0  0
   31.6966   28.8111   40.9136 C   0  0  0  0  0  0  0  0  0  0  0  0
   30.5411   29.3705   40.3415 C   0  0  0  0  0  0  0  0  0  0  0  0
   30.2002   29.1275   39.0151 C   0  0  0  0  0  0  0  0  0  0  0  0
  1  2  1  0
  2  3  2  0
  2  4  1  0
  4  5  2  0
  5  6  1  0
  6  7  2  0
  7  8  1  0
  8  9  2  0
  9 10  1  0
 10 11  2  0
 11 12  1  0
 12 13  2  0
 13 14  1  0
  8 15  1  0
 15 16  2  0
 16 17  1  0
 17 18  1  0
 18 19  1  0
 19 20  1  0
 20 21  1  0
 21 22  1  0
 22 23  1  0
 23 24  1  0
 23 25  1  0
 25 26  2  0
 25 27  1  0
 27 28  1  0
 28 29  2  0
 13  4  1  0
 29 15  1  0
 12  7  1  0
 27 17  2  0
M  END
>  <AAScore>  (1) 
550.618342834282

>  <RootName>  (1) 
./4ZLY/04_DeltaGEst/trajectory_01/rank_01/lead_0007

$$$$
