confid_1
     RDKit          3D

 27 30  0  0  0  0  0  0  0  0999 V2000
   24.5700   26.8800   35.5900 N   0  0  0  0  0  0  0  0  0  0  0  0
   25.5000   26.4000   34.6900 C   0  0  0  0  0  0  0  0  0  0  0  0
   25.1700   25.5200   33.9100 O   0  0  0  0  0  0  0  0  0  0  0  0
   26.8400   27.0200   34.7400 C   0  0  0  0  0  0  0  0  0  0  0  0
   27.3800   27.2800   35.9400 N   0  0  0  0  0  0  0  0  0  0  0  0
   28.6200   27.7400   36.0300 N   0  0  0  0  0  0  0  0  0  0  0  0
   29.3800   28.0000   34.9600 C   0  0  0  0  0  0  0  0  0  0  0  0
   30.6700   28.5000   35.1300 C   0  0  0  0  0  0  0  0  0  0  0  0
   31.5400   28.6100   34.0300 C   0  0  0  0  0  0  0  0  0  0  0  0
   31.0900   28.2200   32.7700 C   0  0  0  0  0  0  0  0  0  0  0  0
   29.8000   27.7000   32.6000 C   0  0  0  0  0  0  0  0  0  0  0  0
   28.9600   27.5500   33.7100 C   0  0  0  0  0  0  0  0  0  0  0  0
   27.6600   27.0300   33.5900 C   0  0  0  0  0  0  0  0  0  0  0  0
   27.1600   26.7400   32.3400 N   0  0  0  0  0  0  0  0  0  0  0  0
   23.1626   26.6164   35.4944 C   0  0  0  0  0  0  0  0  0  0  0  0
   22.4055   26.3300   36.5785 N   0  0  0  0  0  0  0  0  0  0  0  0
   21.1444   26.2606   36.0927 C   0  0  0  0  0  0  0  0  0  0  0  0
   21.1695   26.5153   34.7387 C   0  0  0  0  0  0  0  0  0  0  0  0
   20.0115   26.7665   33.8276 C   0  0  0  0  0  0  0  0  0  0  0  0
   20.4206   26.9076   32.4701 O   0  0  0  0  0  0  0  0  0  0  0  0
   21.5544   27.7653   32.2867 C   0  0  2  0  0  0  0  0  0  0  0  0
   21.2523   29.2104   32.7590 C   0  0  0  0  0  0  0  0  0  0  0  0
   21.8492   27.8137   30.7716 C   0  0  0  0  0  0  0  0  0  0  0  0
   21.9697   26.4973   30.2640 O   0  0  0  0  0  0  0  0  0  0  0  0
   22.3323   26.5506   28.9019 C   0  0  0  0  0  0  0  0  0  0  0  0
   22.8034   27.2004   33.0304 C   0  0  0  0  0  0  0  0  0  0  0  0
   22.4277   26.7639   34.3703 N   0  0  0  0  0  0  0  0  0  0  0  0
  1  2  1  0
  2  3  2  0
  2  4  1  0
  4  5  2  0
  5  6  1  0
  6  7  2  0
  7  8  1  0
  8  9  2  0
  9 10  1  0
 10 11  2  0
 11 12  1  0
 12 13  2  0
 13 14  1  0
  1 15  1  0
 15 16  2  0
 16 17  1  0
 17 18  2  0
 18 19  1  0
 19 20  1  0
 20 21  1  0
 21 22  1  1
 21 23  1  0
 23 24  1  0
 24 25  1  0
 21 26  1  0
 26 27  1  0
 13  4  1  0
 27 15  1  0
 12  7  1  0
 27 18  1  0
M  END
>  <AAScore>  (1) 
2709.5901144904537

>  <RootName>  (1) 
./4ZLY/04_DeltaGEst/trajectory_05/rank_00/lead_0250

$$$$
