confid_13
     RDKit          3D

 27 30  0  0  0  0  0  0  0  0999 V2000
   24.6900   26.1200   35.5300 N   0  0  0  0  0  0  0  0  0  0  0  0
   25.6600   25.6700   34.6600 C   0  0  0  0  0  0  0  0  0  0  0  0
   25.2400   25.0100   33.7200 O   0  0  0  0  0  0  0  0  0  0  0  0
   27.0300   26.2200   34.8800 C   0  0  0  0  0  0  0  0  0  0  0  0
   27.3500   26.7300   36.0700 N   0  0  0  0  0  0  0  0  0  0  0  0
   28.5700   27.1800   36.3300 N   0  0  0  0  0  0  0  0  0  0  0  0
   29.5300   27.1100   35.3900 C   0  0  0  0  0  0  0  0  0  0  0  0
   30.8300   27.5700   35.6500 C   0  0  0  0  0  0  0  0  0  0  0  0
   31.8500   27.5400   34.6900 C   0  0  0  0  0  0  0  0  0  0  0  0
   31.5100   27.1200   33.4000 C   0  0  0  0  0  0  0  0  0  0  0  0
   30.2200   26.6300   33.1100 C   0  0  0  0  0  0  0  0  0  0  0  0
   29.2400   26.6600   34.1000 C   0  0  0  0  0  0  0  0  0  0  0  0
   27.9300   26.2600   33.8100 C   0  0  0  0  0  0  0  0  0  0  0  0
   27.5200   25.7100   32.6100 N   0  0  0  0  0  0  0  0  0  0  0  0
   31.1482   28.0663   36.9636 N   0  0  0  0  0  0  0  0  0  0  0  0
   31.6135   29.4589   37.0965 C   0  0  0  0  0  0  0  0  0  0  0  0
   30.8924   30.2415   38.2146 C   0  0  0  0  0  0  0  0  0  0  0  0
   29.5340   29.6715   38.5587 C   0  0  0  0  0  0  0  0  0  0  0  0
   28.3696   30.3942   38.2589 C   0  0  0  0  0  0  0  0  0  0  0  0
   27.1110   29.8590   38.5415 C   0  0  0  0  0  0  0  0  0  0  0  0
   26.9956   28.5860   39.1291 C   0  0  0  0  0  0  0  0  0  0  0  0
   25.7532   28.0009   39.4162 O   0  0  0  0  0  0  0  0  0  0  0  0
   24.4955   28.6033   39.1278 C   0  0  0  0  0  0  0  0  0  0  0  0
   28.1553   27.8639   39.4312 C   0  0  0  0  0  0  0  0  0  0  0  0
   29.4255   28.3917   39.1474 C   0  0  0  0  0  0  0  0  0  0  0  0
   30.6634   27.5575   39.3808 C   0  0  0  0  0  0  0  0  0  0  0  0
   31.3073   27.0941   38.0607 C   0  0  0  0  0  0  0  0  0  0  0  0
  1  2  1  0
  2  3  2  0
  2  4  1  0
  4  5  2  0
  5  6  1  0
  6  7  2  0
  7  8  1  0
  8  9  2  0
  9 10  1  0
 10 11  2  0
 11 12  1  0
 12 13  2  0
 13 14  1  0
  8 15  1  0
 15 16  1  0
 16 17  1  0
 17 18  1  0
 18 19  2  0
 19 20  1  0
 20 21  2  0
 21 22  1  0
 22 23  1  0
 21 24  1  0
 24 25  2  0
 25 26  1  0
 26 27  1  0
 13  4  1  0
 27 15  1  0
 12  7  1  0
 25 18  1  0
M  END
>  <AAScore>  (1) 
-0.2174632649063651

>  <RootName>  (1) 
./4ZLY/04_DeltaGEst/trajectory_02/rank_01/lead_0220

$$$$
