confid_14
     RDKit          3D

 30 33  0  0  0  0  0  0  0  0999 V2000
   24.6900   26.1200   35.5300 N   0  0  0  0  0  0  0  0  0  0  0  0
   25.6600   25.6700   34.6600 C   0  0  0  0  0  0  0  0  0  0  0  0
   25.2400   25.0100   33.7200 O   0  0  0  0  0  0  0  0  0  0  0  0
   27.0300   26.2200   34.8800 C   0  0  0  0  0  0  0  0  0  0  0  0
   27.3500   26.7300   36.0700 N   0  0  0  0  0  0  0  0  0  0  0  0
   28.5700   27.1800   36.3300 N   0  0  0  0  0  0  0  0  0  0  0  0
   29.5300   27.1100   35.3900 C   0  0  0  0  0  0  0  0  0  0  0  0
   30.8300   27.5700   35.6500 C   0  0  0  0  0  0  0  0  0  0  0  0
   31.8500   27.5400   34.6900 C   0  0  0  0  0  0  0  0  0  0  0  0
   31.5100   27.1200   33.4000 C   0  0  0  0  0  0  0  0  0  0  0  0
   30.2200   26.6300   33.1100 C   0  0  0  0  0  0  0  0  0  0  0  0
   29.2400   26.6600   34.1000 C   0  0  0  0  0  0  0  0  0  0  0  0
   27.9300   26.2600   33.8100 C   0  0  0  0  0  0  0  0  0  0  0  0
   27.5200   25.7100   32.6100 N   0  0  0  0  0  0  0  0  0  0  0  0
   31.1421   28.0649   36.9576 N   0  0  0  0  0  0  0  0  0  0  0  0
   31.2071   29.5108   37.1869 C   0  0  0  0  0  0  0  0  0  0  0  0
   30.9136   29.8256   38.6549 C   0  0  0  0  0  0  0  0  0  0  0  0
   31.7240   28.9701   39.5353 N   0  0  0  0  0  0  0  0  0  0  0  0
   32.0901   29.4327   40.8496 C   0  0  0  0  0  0  0  0  0  0  0  0
   32.7710   30.5808   40.9955 C   0  0  0  0  0  0  0  0  0  0  0  0
   33.1687   31.0703   42.3296 C   0  0  0  0  0  0  0  0  0  0  0  0
   33.9858   32.1514   42.4033 F   0  0  0  0  0  0  0  0  0  0  0  0
   32.6955   30.4871   43.4479 C   0  0  0  0  0  0  0  0  0  0  0  0
   33.0581   30.9867   44.7510 N   0  0  0  0  0  0  0  0  0  0  0  0
   32.0118   31.2660   45.7354 C   0  0  0  0  0  0  0  0  0  0  0  0
   34.4557   31.2582   45.0966 C   0  0  0  0  0  0  0  0  0  0  0  0
   31.6456   29.4047   43.3294 C   0  0  0  0  0  0  0  0  0  0  0  0
   31.8421   28.5622   42.0603 C   0  0  0  0  0  0  0  0  0  0  0  0
   31.9241   27.5883   39.1803 C   0  0  0  0  0  0  0  0  0  0  0  0
   31.6326   27.1540   37.9534 C   0  0  0  0  0  0  0  0  0  0  0  0
  1  2  1  0
  2  3  2  0
  2  4  1  0
  4  5  2  0
  5  6  1  0
  6  7  2  0
  7  8  1  0
  8  9  2  0
  9 10  1  0
 10 11  2  0
 11 12  1  0
 12 13  2  0
 13 14  1  0
  8 15  1  0
 15 16  1  0
 16 17  1  0
 17 18  1  0
 18 19  1  0
 19 20  2  0
 20 21  1  0
 21 22  1  0
 21 23  2  0
 23 24  1  0
 24 25  1  0
 24 26  1  0
 23 27  1  0
 27 28  1  0
 18 29  1  0
 29 30  2  0
 13  4  1  0
 30 15  1  0
 12  7  1  0
 28 19  1  0
M  END
>  <AAScore>  (1) 
3677.9546635218726

>  <RootName>  (1) 
./4ZLY/04_DeltaGEst/trajectory_02/rank_01/lead_0202

$$$$
