confid_13
     RDKit          3D

 28 31  0  0  0  0  0  0  0  0999 V2000
   24.2000   26.2400   35.6900 N   0  0  0  0  0  0  0  0  0  0  0  0
   24.8500   26.2800   34.4800 C   0  0  0  0  0  0  0  0  0  0  0  0
   24.3100   25.7400   33.5400 O   0  0  0  0  0  0  0  0  0  0  0  0
   26.1800   26.9700   34.4700 C   0  0  0  0  0  0  0  0  0  0  0  0
   26.6500   27.6000   35.5500 N   0  0  0  0  0  0  0  0  0  0  0  0
   27.7900   28.2700   35.6200 N   0  0  0  0  0  0  0  0  0  0  0  0
   28.5400   28.3000   34.5100 C   0  0  0  0  0  0  0  0  0  0  0  0
   29.7700   28.9400   34.5600 C   0  0  0  0  0  0  0  0  0  0  0  0
   30.7000   28.8900   33.5000 C   0  0  0  0  0  0  0  0  0  0  0  0
   30.3700   28.1400   32.3700 C   0  0  0  0  0  0  0  0  0  0  0  0
   29.1200   27.5200   32.2800 C   0  0  0  0  0  0  0  0  0  0  0  0
   28.2100   27.6100   33.3300 C   0  0  0  0  0  0  0  0  0  0  0  0
   26.9700   26.9700   33.3100 C   0  0  0  0  0  0  0  0  0  0  0  0
   26.5300   26.2400   32.2200 N   0  0  0  0  0  0  0  0  0  0  0  0
   22.7966   25.9751   35.8462 C   0  0  0  0  0  0  0  0  0  0  0  0
   21.9244   25.8609   34.8221 N   0  0  0  0  0  0  0  0  0  0  0  0
   20.6500   25.6285   35.2446 C   0  0  0  0  0  0  0  0  0  0  0  0
   19.5393   25.5307   34.2244 C   0  0  0  0  0  0  0  0  0  0  0  0
   18.7801   24.1863   34.2741 C   0  0  0  0  0  0  0  0  0  0  0  0
   17.3288   24.2805   33.9695 N   0  0  0  0  0  0  0  0  0  0  0  0
   17.1015   24.6976   32.5755 C   0  0  0  0  0  0  0  0  0  0  0  0
   16.5250   25.1106   34.9025 C   0  0  0  0  0  0  0  0  0  0  0  0
   16.5576   24.5846   36.3622 C   0  0  0  0  0  0  0  0  0  0  0  0
   16.8256   25.5698   37.3531 O   0  0  0  0  0  0  0  0  0  0  0  0
   18.0985   26.1893   37.2327 C   0  0  0  0  0  0  0  0  0  0  0  0
   19.2951   25.2502   37.4901 C   0  0  0  0  0  0  0  0  0  0  0  0
   20.5056   25.5884   36.6523 C   0  0  0  0  0  0  0  0  0  0  0  0
   22.0328   25.8148   37.3287 S   0  0  0  0  0  0  0  0  0  0  0  0
  1  2  1  0
  2  3  2  0
  2  4  1  0
  4  5  2  0
  5  6  1  0
  6  7  2  0
  7  8  1  0
  8  9  2  0
  9 10  1  0
 10 11  2  0
 11 12  1  0
 12 13  2  0
 13 14  1  0
  1 15  1  0
 15 16  2  0
 16 17  1  0
 17 18  1  0
 18 19  1  0
 19 20  1  0
 20 21  1  0
 20 22  1  0
 22 23  1  0
 23 24  1  0
 24 25  1  0
 25 26  1  0
 26 27  1  0
 27 28  1  0
 13  4  1  0
 28 15  1  0
 12  7  1  0
 27 17  2  0
M  END
>  <AAScore>  (1) 
1038.7747748060926

>  <RootName>  (1) 
./4ZLY/04_DeltaGEst/trajectory_04/rank_00/lead_0307

$$$$
