confid_15
     RDKit          3D

 27 30  0  0  0  0  0  0  0  0999 V2000
   24.2000   26.2400   35.6900 N   0  0  0  0  0  0  0  0  0  0  0  0
   24.8500   26.2800   34.4800 C   0  0  0  0  0  0  0  0  0  0  0  0
   24.3100   25.7400   33.5400 O   0  0  0  0  0  0  0  0  0  0  0  0
   26.1800   26.9700   34.4700 C   0  0  0  0  0  0  0  0  0  0  0  0
   26.6500   27.6000   35.5500 N   0  0  0  0  0  0  0  0  0  0  0  0
   27.7900   28.2700   35.6200 N   0  0  0  0  0  0  0  0  0  0  0  0
   28.5400   28.3000   34.5100 C   0  0  0  0  0  0  0  0  0  0  0  0
   29.7700   28.9400   34.5600 C   0  0  0  0  0  0  0  0  0  0  0  0
   30.7000   28.8900   33.5000 C   0  0  0  0  0  0  0  0  0  0  0  0
   30.3700   28.1400   32.3700 C   0  0  0  0  0  0  0  0  0  0  0  0
   29.1200   27.5200   32.2800 C   0  0  0  0  0  0  0  0  0  0  0  0
   28.2100   27.6100   33.3300 C   0  0  0  0  0  0  0  0  0  0  0  0
   26.9700   26.9700   33.3100 C   0  0  0  0  0  0  0  0  0  0  0  0
   26.5300   26.2400   32.2200 N   0  0  0  0  0  0  0  0  0  0  0  0
   22.7736   26.1031   35.8405 C   0  0  0  0  0  0  0  0  0  0  0  0
   21.9466   26.2132   34.7669 N   0  0  0  0  0  0  0  0  0  0  0  0
   20.5982   26.1062   34.8792 C   0  0  0  0  0  0  0  0  0  0  0  0
   19.9963   25.8744   36.1265 C   0  0  0  0  0  0  0  0  0  0  0  0
   18.4770   25.8826   36.1687 C   0  0  0  0  0  0  0  0  0  0  0  0
   17.8878   25.5722   37.4202 O   0  0  0  0  0  0  0  0  0  0  0  0
   18.1787   24.2675   37.9122 C   0  0  1  0  0  0  0  0  0  0  0  0
   18.2585   23.1398   36.8582 C   0  0  0  0  0  0  0  0  0  0  0  0
   19.4028   24.2910   38.8478 C   0  0  0  0  0  0  0  0  0  0  0  0
   20.3103   25.4615   38.6052 C   0  0  0  0  0  0  0  0  0  0  0  0
   20.7120   26.1446   39.5859 O   0  0  0  0  0  0  0  0  0  0  0  0
   20.8344   25.7500   37.2602 C   0  0  0  0  0  0  0  0  0  0  0  0
   22.2231   25.8821   37.1071 C   0  0  0  0  0  0  0  0  0  0  0  0
  1  2  1  0
  2  3  2  0
  2  4  1  0
  4  5  2  0
  5  6  1  0
  6  7  2  0
  7  8  1  0
  8  9  2  0
  9 10  1  0
 10 11  2  0
 11 12  1  0
 12 13  2  0
 13 14  1  0
  1 15  1  0
 15 16  2  0
 16 17  1  0
 17 18  2  0
 18 19  1  0
 19 20  1  0
 20 21  1  0
 21 22  1  6
 21 23  1  0
 23 24  1  0
 24 25  2  0
 24 26  1  0
 26 27  2  0
 13  4  1  0
 27 15  1  0
 12  7  1  0
 26 18  1  0
M  END
>  <AAScore>  (1) 
254.81580664435745

>  <RootName>  (1) 
./4ZLY/04_DeltaGEst/trajectory_04/rank_00/lead_0182

$$$$
