confid_0
     RDKit          3D

 27 30  0  0  0  0  0  0  0  0999 V2000
   24.5500   26.3900   36.2500 N   0  0  0  0  0  0  0  0  0  0  0  0
   25.6000   26.1300   35.4000 C   0  0  0  0  0  0  0  0  0  0  0  0
   25.4300   25.4300   34.4200 O   0  0  0  0  0  0  0  0  0  0  0  0
   26.9800   26.6300   35.7100 C   0  0  0  0  0  0  0  0  0  0  0  0
   27.3200   26.8200   36.9800 N   0  0  0  0  0  0  0  0  0  0  0  0
   28.4700   27.4000   37.3100 N   0  0  0  0  0  0  0  0  0  0  0  0
   29.4000   27.6300   36.3700 C   0  0  0  0  0  0  0  0  0  0  0  0
   30.6600   28.0500   36.8000 C   0  0  0  0  0  0  0  0  0  0  0  0
   31.5700   28.3600   35.7800 C   0  0  0  0  0  0  0  0  0  0  0  0
   31.3700   28.1000   34.4300 C   0  0  0  0  0  0  0  0  0  0  0  0
   30.1200   27.5900   34.0500 C   0  0  0  0  0  0  0  0  0  0  0  0
   29.1500   27.3400   35.0300 C   0  0  0  0  0  0  0  0  0  0  0  0
   27.8800   26.8900   34.6600 C   0  0  0  0  0  0  0  0  0  0  0  0
   27.4800   26.6100   33.3700 N   0  0  0  0  0  0  0  0  0  0  0  0
   31.0287   28.2888   38.2187 C   0  0  0  0  0  0  0  0  0  0  0  0
   30.5668   27.6011   39.3319 C   0  0  0  0  0  0  0  0  0  0  0  0
   31.2303   28.1813   40.3926 C   0  0  0  0  0  0  0  0  0  0  0  0
   30.9604   27.9034   41.8436 C   0  0  0  0  0  0  0  0  0  0  0  0
   29.8300   28.7978   42.3782 C   0  0  0  0  0  0  0  0  0  0  0  0
   29.9356   30.1895   41.8818 N   0  0  0  0  0  0  0  0  0  0  0  0
   31.1402   30.8832   42.4057 C   0  0  0  0  0  0  0  0  0  0  0  0
   32.0775   31.2594   41.2488 C   0  0  0  0  0  0  0  0  0  0  0  0
   32.8771   30.0694   40.6988 C   0  0  0  0  0  0  0  0  0  0  0  0
   32.0302   29.1622   39.9221 N   0  0  0  0  0  0  0  0  0  0  0  0
   31.9190   29.2265   38.6050 N   0  0  0  0  0  0  0  0  0  0  0  0
   28.6918   30.9389   42.1656 C   0  0  0  0  0  0  0  0  0  0  0  0
   28.5692   32.1549   41.2488 C   0  0  0  0  0  0  0  0  0  0  0  0
  1  2  1  0
  2  3  2  0
  2  4  1  0
  4  5  2  0
  5  6  1  0
  6  7  2  0
  7  8  1  0
  8  9  2  0
  9 10  1  0
 10 11  2  0
 11 12  1  0
 12 13  2  0
 13 14  1  0
  8 15  1  0
 15 16  1  0
 16 17  2  0
 17 18  1  0
 18 19  1  0
 19 20  1  0
 20 21  1  0
 21 22  1  0
 22 23  1  0
 23 24  1  0
 24 25  1  0
 20 26  1  0
 26 27  1  0
 13  4  1  0
 25 15  2  0
 12  7  1  0
 24 17  1  0
M  END
>  <AAScore>  (1) 
545.6540400262106

>  <RootName>  (1) 
./4ZLY/04_DeltaGEst/trajectory_01/rank_01/lead_0062

$$$$
