confid_0
     RDKit          3D

 30 34  0  0  0  0  0  0  0  0999 V2000
   24.6900   26.1200   35.5300 N   0  0  0  0  0  0  0  0  0  0  0  0
   25.6600   25.6700   34.6600 C   0  0  0  0  0  0  0  0  0  0  0  0
   25.2400   25.0100   33.7200 O   0  0  0  0  0  0  0  0  0  0  0  0
   27.0300   26.2200   34.8800 C   0  0  0  0  0  0  0  0  0  0  0  0
   27.3500   26.7300   36.0700 N   0  0  0  0  0  0  0  0  0  0  0  0
   28.5700   27.1800   36.3300 N   0  0  0  0  0  0  0  0  0  0  0  0
   29.5300   27.1100   35.3900 C   0  0  0  0  0  0  0  0  0  0  0  0
   30.8300   27.5700   35.6500 C   0  0  0  0  0  0  0  0  0  0  0  0
   31.8500   27.5400   34.6900 C   0  0  0  0  0  0  0  0  0  0  0  0
   31.5100   27.1200   33.4000 C   0  0  0  0  0  0  0  0  0  0  0  0
   30.2200   26.6300   33.1100 C   0  0  0  0  0  0  0  0  0  0  0  0
   29.2400   26.6600   34.1000 C   0  0  0  0  0  0  0  0  0  0  0  0
   27.9300   26.2600   33.8100 C   0  0  0  0  0  0  0  0  0  0  0  0
   27.5200   25.7100   32.6100 N   0  0  0  0  0  0  0  0  0  0  0  0
   23.3511   25.5941   35.6078 C   0  0  0  0  0  0  0  0  0  0  0  0
   23.1460   24.3439   35.2961 N   0  0  0  0  0  0  0  0  0  0  0  0
   21.9448   23.5638   35.2723 C   0  0  0  0  0  0  0  0  0  0  0  0
   21.0693   23.5670   36.2680 C   0  0  0  0  0  0  0  0  0  0  0  0
   19.9590   22.6906   36.7679 C   0  0  0  0  0  0  0  0  0  0  0  0
   19.7448   23.4153   37.9353 O   0  0  0  0  0  0  0  0  0  0  0  0
   20.7296   24.3106   37.5243 C   0  0  2  0  0  0  0  0  0  0  0  0
   20.1029   25.6755   37.2392 C   0  0  0  0  0  0  0  0  0  0  0  0
   21.0247   26.6085   36.5283 C   0  0  0  0  0  0  0  0  0  0  0  0
   22.2722   26.5634   35.8960 C   0  0  0  0  0  0  0  0  0  0  0  0
   22.1947   28.0339   35.6204 C   0  0  1  0  0  0  0  0  0  0  0  0
   22.2005   28.3614   34.1118 C   0  0  0  0  0  0  0  0  0  0  0  0
   23.5201   28.0559   33.5165 N   0  0  0  0  0  0  0  0  0  0  0  0
   24.4719   29.1611   33.7221 C   0  0  0  0  0  0  0  0  0  0  0  0
   23.3885   27.7795   32.0777 C   0  0  0  0  0  0  0  0  0  0  0  0
   20.8996   28.0637   36.2270 C   0  0  0  0  0  0  0  0  0  0  0  0
  1  2  1  0
  2  3  2  0
  2  4  1  0
  4  5  2  0
  5  6  1  0
  6  7  2  0
  7  8  1  0
  8  9  2  0
  9 10  1  0
 10 11  2  0
 11 12  1  0
 12 13  2  0
 13 14  1  0
  1 15  1  0
 15 16  2  0
 16 17  1  0
 17 18  2  0
 18 19  1  0
 19 20  1  0
 20 21  1  0
 21 22  1  6
 22 23  1  0
 23 24  2  0
 24 25  1  0
 25 26  1  6
 26 27  1  0
 27 28  1  0
 27 29  1  0
 25 30  1  0
 13  4  1  0
 24 15  1  0
 12  7  1  0
 21 18  1  0
 30 23  1  0
M  END
>  <AAScore>  (1) 
53414.32499179698

>  <RootName>  (1) 
./4ZLY/04_DeltaGEst/trajectory_02/rank_00/lead_0231

$$$$
