confid_9
     RDKit          3D

 27 30  0  0  0  0  0  0  0  0999 V2000
   24.6900   26.1200   35.5300 N   0  0  0  0  0  0  0  0  0  0  0  0
   25.6600   25.6700   34.6600 C   0  0  0  0  0  0  0  0  0  0  0  0
   25.2400   25.0100   33.7200 O   0  0  0  0  0  0  0  0  0  0  0  0
   27.0300   26.2200   34.8800 C   0  0  0  0  0  0  0  0  0  0  0  0
   27.3500   26.7300   36.0700 N   0  0  0  0  0  0  0  0  0  0  0  0
   28.5700   27.1800   36.3300 N   0  0  0  0  0  0  0  0  0  0  0  0
   29.5300   27.1100   35.3900 C   0  0  0  0  0  0  0  0  0  0  0  0
   30.8300   27.5700   35.6500 C   0  0  0  0  0  0  0  0  0  0  0  0
   31.8500   27.5400   34.6900 C   0  0  0  0  0  0  0  0  0  0  0  0
   31.5100   27.1200   33.4000 C   0  0  0  0  0  0  0  0  0  0  0  0
   30.2200   26.6300   33.1100 C   0  0  0  0  0  0  0  0  0  0  0  0
   29.2400   26.6600   34.1000 C   0  0  0  0  0  0  0  0  0  0  0  0
   27.9300   26.2600   33.8100 C   0  0  0  0  0  0  0  0  0  0  0  0
   27.5200   25.7100   32.6100 N   0  0  0  0  0  0  0  0  0  0  0  0
   31.1417   28.0747   36.9598 N   0  0  0  0  0  0  0  0  0  0  0  0
   31.2260   27.1477   38.0981 C   0  0  0  0  0  0  0  0  0  0  0  0
   30.5102   27.7404   39.3178 C   0  0  0  0  0  0  0  0  0  0  0  0
   30.8849   29.1796   39.4908 C   0  0  0  0  0  0  0  0  0  0  0  0
   30.6736   30.0937   40.8827 S   0  0  0  0  0  0  0  0  0  0  0  0
   31.2111   31.5417   40.2070 C   0  0  0  0  0  0  0  0  0  0  0  0
   31.2861   32.7852   40.9236 N   0  0  0  0  0  0  0  0  0  0  0  0
   31.9060   32.8104   42.2471 C   0  0  0  0  0  0  0  0  0  0  0  0
   30.7596   34.0229   40.3474 C   0  0  0  0  0  0  0  0  0  0  0  0
   31.5828   31.3254   38.8741 C   0  0  0  0  0  0  0  0  0  0  0  0
   31.3607   29.9936   38.4688 C   0  0  0  0  0  0  0  0  0  0  0  0
   31.6712   29.4397   37.1030 C   0  0  0  0  0  0  0  0  0  0  0  0
   32.1553   32.3836   37.9754 C   0  0  0  0  0  0  0  0  0  0  0  0
  1  2  1  0
  2  3  2  0
  2  4  1  0
  4  5  2  0
  5  6  1  0
  6  7  2  0
  7  8  1  0
  8  9  2  0
  9 10  1  0
 10 11  2  0
 11 12  1  0
 12 13  2  0
 13 14  1  0
  8 15  1  0
 15 16  1  0
 16 17  1  0
 17 18  1  0
 18 19  1  0
 19 20  1  0
 20 21  1  0
 21 22  1  0
 21 23  1  0
 20 24  2  0
 24 25  1  0
 25 26  1  0
 24 27  1  0
 13  4  1  0
 26 15  1  0
 12  7  1  0
 25 18  2  0
M  END
>  <AAScore>  (1) 
-6.288944723339626

>  <RootName>  (1) 
./4ZLY/04_DeltaGEst/trajectory_02/rank_01/lead_0364

$$$$
