confid_19
     RDKit          3D

 27 30  0  0  0  0  0  0  0  0999 V2000
   24.6900   26.1200   35.5300 N   0  0  0  0  0  0  0  0  0  0  0  0
   25.6600   25.6700   34.6600 C   0  0  0  0  0  0  0  0  0  0  0  0
   25.2400   25.0100   33.7200 O   0  0  0  0  0  0  0  0  0  0  0  0
   27.0300   26.2200   34.8800 C   0  0  0  0  0  0  0  0  0  0  0  0
   27.3500   26.7300   36.0700 N   0  0  0  0  0  0  0  0  0  0  0  0
   28.5700   27.1800   36.3300 N   0  0  0  0  0  0  0  0  0  0  0  0
   29.5300   27.1100   35.3900 C   0  0  0  0  0  0  0  0  0  0  0  0
   30.8300   27.5700   35.6500 C   0  0  0  0  0  0  0  0  0  0  0  0
   31.8500   27.5400   34.6900 C   0  0  0  0  0  0  0  0  0  0  0  0
   31.5100   27.1200   33.4000 C   0  0  0  0  0  0  0  0  0  0  0  0
   30.2200   26.6300   33.1100 C   0  0  0  0  0  0  0  0  0  0  0  0
   29.2400   26.6600   34.1000 C   0  0  0  0  0  0  0  0  0  0  0  0
   27.9300   26.2600   33.8100 C   0  0  0  0  0  0  0  0  0  0  0  0
   27.5200   25.7100   32.6100 N   0  0  0  0  0  0  0  0  0  0  0  0
   23.4950   25.3742   35.8342 C   0  0  0  0  0  0  0  0  0  0  0  0
   23.3301   24.0767   35.4875 N   0  0  0  0  0  0  0  0  0  0  0  0
   22.1042   23.7582   35.9481 C   0  0  0  0  0  0  0  0  0  0  0  0
   21.5472   24.8602   36.5571 C   0  0  0  0  0  0  0  0  0  0  0  0
   20.1746   24.9307   37.1779 C   0  0  0  0  0  0  0  0  0  0  0  0
   19.5310   26.2476   36.9944 N   0  0  0  0  0  0  0  0  0  0  0  0
   18.4948   26.6493   37.9198 C   0  0  0  0  0  0  0  0  0  0  0  0
   18.0179   25.8083   38.7302 O   0  0  0  0  0  0  0  0  0  0  0  0
   17.9412   28.0430   37.9356 C   0  0  0  0  0  0  0  0  0  0  0  0
   19.8989   27.0963   35.8451 C   0  0  0  0  0  0  0  0  0  0  0  0
   21.1388   27.9575   36.1513 C   0  0  0  0  0  0  0  0  0  0  0  0
   22.1932   27.2354   37.0047 C   0  0  0  0  0  0  0  0  0  0  0  0
   22.4316   25.8757   36.5079 N   0  0  0  0  0  0  0  0  0  0  0  0
  1  2  1  0
  2  3  2  0
  2  4  1  0
  4  5  2  0
  5  6  1  0
  6  7  2  0
  7  8  1  0
  8  9  2  0
  9 10  1  0
 10 11  2  0
 11 12  1  0
 12 13  2  0
 13 14  1  0
  1 15  1  0
 15 16  2  0
 16 17  1  0
 17 18  2  0
 18 19  1  0
 19 20  1  0
 20 21  1  0
 21 22  2  0
 21 23  1  0
 20 24  1  0
 24 25  1  0
 25 26  1  0
 26 27  1  0
 13  4  1  0
 27 15  1  0
 12  7  1  0
 27 18  1  0
M  END
>  <AAScore>  (1) 
4302.675629870048

>  <RootName>  (1) 
./4ZLY/04_DeltaGEst/trajectory_02/rank_00/lead_0246

$$$$
