confid_2
     RDKit          3D

 27 30  0  0  0  0  0  0  0  0999 V2000
   24.5500   26.3900   36.2500 N   0  0  0  0  0  0  0  0  0  0  0  0
   25.6000   26.1300   35.4000 C   0  0  0  0  0  0  0  0  0  0  0  0
   25.4300   25.4300   34.4200 O   0  0  0  0  0  0  0  0  0  0  0  0
   26.9800   26.6300   35.7100 C   0  0  0  0  0  0  0  0  0  0  0  0
   27.3200   26.8200   36.9800 N   0  0  0  0  0  0  0  0  0  0  0  0
   28.4700   27.4000   37.3100 N   0  0  0  0  0  0  0  0  0  0  0  0
   29.4000   27.6300   36.3700 C   0  0  0  0  0  0  0  0  0  0  0  0
   30.6600   28.0500   36.8000 C   0  0  0  0  0  0  0  0  0  0  0  0
   31.5700   28.3600   35.7800 C   0  0  0  0  0  0  0  0  0  0  0  0
   31.3700   28.1000   34.4300 C   0  0  0  0  0  0  0  0  0  0  0  0
   30.1200   27.5900   34.0500 C   0  0  0  0  0  0  0  0  0  0  0  0
   29.1500   27.3400   35.0300 C   0  0  0  0  0  0  0  0  0  0  0  0
   27.8800   26.8900   34.6600 C   0  0  0  0  0  0  0  0  0  0  0  0
   27.4800   26.6100   33.3700 N   0  0  0  0  0  0  0  0  0  0  0  0
   31.0074   28.3123   38.2186 C   0  0  0  0  0  0  0  0  0  0  0  0
   32.1936   27.7690   38.7587 C   0  0  0  0  0  0  0  0  0  0  0  0
   32.5126   28.0386   40.0895 C   0  0  0  0  0  0  0  0  0  0  0  0
   33.7071   27.5674   40.8687 C   0  0  0  0  0  0  0  0  0  0  0  0
   33.5065   28.1648   42.1939 N   0  0  0  0  0  0  0  0  0  0  0  0
   32.2926   28.9174   42.1709 C   0  0  0  0  0  0  0  0  0  0  0  0
   31.8266   29.5593   43.1493 O   0  0  0  0  0  0  0  0  0  0  0  0
   31.6931   28.8271   40.8646 C   0  0  0  0  0  0  0  0  0  0  0  0
   30.5228   29.3918   40.3653 C   0  0  0  0  0  0  0  0  0  0  0  0
   30.1821   29.1330   39.0281 C   0  0  0  0  0  0  0  0  0  0  0  0
   34.4240   27.9930   43.3253 C   0  0  0  0  0  0  0  0  0  0  0  0
   35.0078   29.3408   43.7572 C   0  0  0  0  0  0  0  0  0  0  0  0
   33.7213   27.2885   44.4888 C   0  0  0  0  0  0  0  0  0  0  0  0
  1  2  1  0
  2  3  2  0
  2  4  1  0
  4  5  2  0
  5  6  1  0
  6  7  2  0
  7  8  1  0
  8  9  2  0
  9 10  1  0
 10 11  2  0
 11 12  1  0
 12 13  2  0
 13 14  1  0
  8 15  1  0
 15 16  2  0
 16 17  1  0
 17 18  1  0
 18 19  1  0
 19 20  1  0
 20 21  2  0
 20 22  1  0
 22 23  1  0
 23 24  2  0
 19 25  1  0
 25 26  1  0
 25 27  1  0
 13  4  1  0
 24 15  1  0
 12  7  1  0
 22 17  2  0
M  END
>  <AAScore>  (1) 
432.6390439662726

>  <RootName>  (1) 
./4ZLY/04_DeltaGEst/trajectory_01/rank_01/lead_0261

$$$$
