confid_17
     RDKit          3D

 27 30  0  0  0  0  0  0  0  0999 V2000
   24.5700   26.8800   35.5900 N   0  0  0  0  0  0  0  0  0  0  0  0
   25.5000   26.4000   34.6900 C   0  0  0  0  0  0  0  0  0  0  0  0
   25.1700   25.5200   33.9100 O   0  0  0  0  0  0  0  0  0  0  0  0
   26.8400   27.0200   34.7400 C   0  0  0  0  0  0  0  0  0  0  0  0
   27.3800   27.2800   35.9400 N   0  0  0  0  0  0  0  0  0  0  0  0
   28.6200   27.7400   36.0300 N   0  0  0  0  0  0  0  0  0  0  0  0
   29.3800   28.0000   34.9600 C   0  0  0  0  0  0  0  0  0  0  0  0
   30.6700   28.5000   35.1300 C   0  0  0  0  0  0  0  0  0  0  0  0
   31.5400   28.6100   34.0300 C   0  0  0  0  0  0  0  0  0  0  0  0
   31.0900   28.2200   32.7700 C   0  0  0  0  0  0  0  0  0  0  0  0
   29.8000   27.7000   32.6000 C   0  0  0  0  0  0  0  0  0  0  0  0
   28.9600   27.5500   33.7100 C   0  0  0  0  0  0  0  0  0  0  0  0
   27.6600   27.0300   33.5900 C   0  0  0  0  0  0  0  0  0  0  0  0
   27.1600   26.7400   32.3400 N   0  0  0  0  0  0  0  0  0  0  0  0
   23.1536   26.6389   35.5122 C   0  0  0  0  0  0  0  0  0  0  0  0
   22.4296   26.5739   36.6743 N   0  0  0  0  0  0  0  0  0  0  0  0
   21.0794   26.3742   36.6885 C   0  0  0  0  0  0  0  0  0  0  0  0
   20.4105   26.2413   35.4756 C   0  0  0  0  0  0  0  0  0  0  0  0
   18.9457   26.0221   35.2295 C   0  0  0  0  0  0  0  0  0  0  0  0
   18.8521   25.9817   33.7652 N   0  0  0  0  0  0  0  0  0  0  0  0
   20.1617   26.1673   33.2239 C   0  0  0  0  0  0  0  0  0  0  0  0
   20.4359   26.1776   31.9943 O   0  0  0  0  0  0  0  0  0  0  0  0
   21.1102   26.3241   34.2972 C   0  0  0  0  0  0  0  0  0  0  0  0
   22.4861   26.5318   34.2707 C   0  0  0  0  0  0  0  0  0  0  0  0
   17.6080   25.7508   33.0229 C   0  0  0  0  0  0  0  0  0  0  0  0
   17.6937   24.4529   32.2144 C   0  0  0  0  0  0  0  0  0  0  0  0
   17.2825   26.9488   32.1268 C   0  0  0  0  0  0  0  0  0  0  0  0
  1  2  1  0
  2  3  2  0
  2  4  1  0
  4  5  2  0
  5  6  1  0
  6  7  2  0
  7  8  1  0
  8  9  2  0
  9 10  1  0
 10 11  2  0
 11 12  1  0
 12 13  2  0
 13 14  1  0
  1 15  1  0
 15 16  2  0
 16 17  1  0
 17 18  2  0
 18 19  1  0
 19 20  1  0
 20 21  1  0
 21 22  2  0
 21 23  1  0
 23 24  2  0
 20 25  1  0
 25 26  1  0
 25 27  1  0
 13  4  1  0
 24 15  1  0
 12  7  1  0
 23 18  1  0
M  END
>  <AAScore>  (1) 
2109.8455998163977

>  <RootName>  (1) 
./4ZLY/04_DeltaGEst/trajectory_05/rank_00/lead_0141

$$$$
