confid_0
     RDKit          3D

 29 32  0  0  0  0  0  0  0  0999 V2000
   25.3300   26.2600   34.7600 N   0  0  0  0  0  0  0  0  0  0  0  0
   26.1200   25.9200   33.6900 C   0  0  0  0  0  0  0  0  0  0  0  0
   25.6300   25.1100   32.9400 O   0  0  0  0  0  0  0  0  0  0  0  0
   27.5200   26.3800   33.4600 C   0  0  0  0  0  0  0  0  0  0  0  0
   28.1600   26.6300   34.6100 N   0  0  0  0  0  0  0  0  0  0  0  0
   29.4800   26.8500   34.5700 N   0  0  0  0  0  0  0  0  0  0  0  0
   30.1900   26.7800   33.4400 C   0  0  0  0  0  0  0  0  0  0  0  0
   31.5600   27.0500   33.5000 C   0  0  0  0  0  0  0  0  0  0  0  0
   32.2700   27.2400   32.3100 C   0  0  0  0  0  0  0  0  0  0  0  0
   31.6100   27.2500   31.0800 C   0  0  0  0  0  0  0  0  0  0  0  0
   30.2700   26.8700   31.0600 C   0  0  0  0  0  0  0  0  0  0  0  0
   29.5100   26.6900   32.2300 C   0  0  0  0  0  0  0  0  0  0  0  0
   28.1400   26.4100   32.2000 C   0  0  0  0  0  0  0  0  0  0  0  0
   27.4300   26.1300   31.0500 N   0  0  0  0  0  0  0  0  0  0  0  0
   26.5160   27.1318   30.4890 C   0  0  0  0  0  0  0  0  0  0  0  0
   26.7275   27.2924   28.9665 C   0  0  0  0  0  0  0  0  0  0  0  0
   27.4947   26.1759   28.3667 N   0  0  0  0  0  0  0  0  0  0  0  0
   27.3508   26.1763   26.8975 C   0  0  0  0  0  0  0  0  0  0  0  0
   28.4768   25.3969   26.2597 C   0  0  0  0  0  0  0  0  0  0  0  0
   29.7836   25.9081   26.3355 C   0  0  0  0  0  0  0  0  0  0  0  0
   30.8541   25.2021   25.7840 C   0  0  0  0  0  0  0  0  0  0  0  0
   32.1113   25.7036   25.8654 F   0  0  0  0  0  0  0  0  0  0  0  0
   30.6316   23.9778   25.1536 C   0  0  0  0  0  0  0  0  0  0  0  0
   29.3398   23.4525   25.0761 C   0  0  0  0  0  0  0  0  0  0  0  0
   28.2491   24.1522   25.6314 C   0  0  0  0  0  0  0  0  0  0  0  0
   26.9422   23.6388   25.5838 O   0  0  0  0  0  0  0  0  0  0  0  0
   26.5847   22.3837   25.0146 C   0  0  0  0  0  0  0  0  0  0  0  0
   27.0868   24.8851   28.9520 C   0  0  0  0  0  0  0  0  0  0  0  0
   27.5908   24.8254   30.3939 C   0  0  0  0  0  0  0  0  0  0  0  0
  1  2  1  0
  2  3  2  0
  2  4  1  0
  4  5  2  0
  5  6  1  0
  6  7  2  0
  7  8  1  0
  8  9  2  0
  9 10  1  0
 10 11  2  0
 11 12  1  0
 12 13  2  0
 13 14  1  0
 14 15  1  0
 15 16  1  0
 16 17  1  0
 17 18  1  0
 18 19  1  0
 19 20  2  0
 20 21  1  0
 21 22  1  0
 21 23  2  0
 23 24  1  0
 24 25  2  0
 25 26  1  0
 26 27  1  0
 17 28  1  0
 28 29  1  0
 13  4  1  0
 29 14  1  0
 12  7  1  0
 25 19  1  0
M  END
>  <AAScore>  (1) 
-2.772980946940168

>  <RootName>  (1) 
./4ZLY/04_DeltaGEst/trajectory_03/rank_01/lead_0328

$$$$
