confid_13
     RDKit          3D

 28 31  0  0  0  0  0  0  0  0999 V2000
   24.4800   26.1000   36.1300 N   0  0  0  0  0  0  0  0  0  0  0  0
   25.2500   26.2500   34.9900 C   0  0  0  0  0  0  0  0  0  0  0  0
   24.7400   25.7600   33.9900 O   0  0  0  0  0  0  0  0  0  0  0  0
   26.5900   26.8900   34.9600 C   0  0  0  0  0  0  0  0  0  0  0  0
   27.0600   27.2400   36.1600 N   0  0  0  0  0  0  0  0  0  0  0  0
   28.3000   27.7100   36.2400 N   0  0  0  0  0  0  0  0  0  0  0  0
   29.0500   27.9600   35.1500 C   0  0  0  0  0  0  0  0  0  0  0  0
   30.3400   28.4900   35.2600 C   0  0  0  0  0  0  0  0  0  0  0  0
   31.1100   28.8200   34.1400 C   0  0  0  0  0  0  0  0  0  0  0  0
   30.5200   28.6700   32.8800 C   0  0  0  0  0  0  0  0  0  0  0  0
   29.2900   28.0200   32.7700 C   0  0  0  0  0  0  0  0  0  0  0  0
   28.5200   27.7100   33.8900 C   0  0  0  0  0  0  0  0  0  0  0  0
   27.2700   27.0800   33.7600 C   0  0  0  0  0  0  0  0  0  0  0  0
   26.7500   26.8800   32.4900 N   0  0  0  0  0  0  0  0  0  0  0  0
   23.0412   26.0217   36.1504 C   0  0  0  0  0  0  0  0  0  0  0  0
   22.2554   26.6780   35.1875 C   0  0  0  0  0  0  0  0  0  0  0  0
   20.8550   26.5879   35.2487 C   0  0  0  0  0  0  0  0  0  0  0  0
   20.0257   27.2294   34.2583 N   0  0  0  0  0  0  0  0  0  0  0  0
   18.6925   27.7315   34.6025 C   0  0  0  0  0  0  0  0  0  0  0  0
   17.6431   26.9550   33.8038 C   0  0  0  0  0  0  0  0  0  0  0  0
   17.9443   27.0368   32.3595 N   0  0  0  0  0  0  0  0  0  0  0  0
   16.9056   26.3320   31.5916 C   0  0  0  0  0  0  0  0  0  0  0  0
   19.2691   26.4484   32.0683 C   0  0  0  0  0  0  0  0  0  0  0  0
   20.3681   27.1952   32.8323 C   0  0  0  0  0  0  0  0  0  0  0  0
   20.2765   25.8914   36.2657 N   0  0  0  0  0  0  0  0  0  0  0  0
   21.0075   25.2630   37.2249 C   0  0  0  0  0  0  0  0  0  0  0  0
   22.4052   25.3287   37.1880 C   0  0  0  0  0  0  0  0  0  0  0  0
   20.3122   24.5379   38.3326 C   0  0  0  0  0  0  0  0  0  0  0  0
  1  2  1  0
  2  3  2  0
  2  4  1  0
  4  5  2  0
  5  6  1  0
  6  7  2  0
  7  8  1  0
  8  9  2  0
  9 10  1  0
 10 11  2  0
 11 12  1  0
 12 13  2  0
 13 14  1  0
  1 15  1  0
 15 16  2  0
 16 17  1  0
 17 18  1  0
 18 19  1  0
 19 20  1  0
 20 21  1  0
 21 22  1  0
 21 23  1  0
 23 24  1  0
 17 25  2  0
 25 26  1  0
 26 27  2  0
 26 28  1  0
 13  4  1  0
 27 15  1  0
 12  7  1  0
 24 18  1  0
M  END
>  <AAScore>  (1) 
1610.2834206755397

>  <RootName>  (1) 
./4ZLY/04_DeltaGEst/trajectory_00/rank_00/lead_0429

$$$$
