confid_1
     RDKit          3D

 27 30  0  0  0  0  0  0  0  0999 V2000
   24.5700   26.8800   35.5900 N   0  0  0  0  0  0  0  0  0  0  0  0
   25.5000   26.4000   34.6900 C   0  0  0  0  0  0  0  0  0  0  0  0
   25.1700   25.5200   33.9100 O   0  0  0  0  0  0  0  0  0  0  0  0
   26.8400   27.0200   34.7400 C   0  0  0  0  0  0  0  0  0  0  0  0
   27.3800   27.2800   35.9400 N   0  0  0  0  0  0  0  0  0  0  0  0
   28.6200   27.7400   36.0300 N   0  0  0  0  0  0  0  0  0  0  0  0
   29.3800   28.0000   34.9600 C   0  0  0  0  0  0  0  0  0  0  0  0
   30.6700   28.5000   35.1300 C   0  0  0  0  0  0  0  0  0  0  0  0
   31.5400   28.6100   34.0300 C   0  0  0  0  0  0  0  0  0  0  0  0
   31.0900   28.2200   32.7700 C   0  0  0  0  0  0  0  0  0  0  0  0
   29.8000   27.7000   32.6000 C   0  0  0  0  0  0  0  0  0  0  0  0
   28.9600   27.5500   33.7100 C   0  0  0  0  0  0  0  0  0  0  0  0
   27.6600   27.0300   33.5900 C   0  0  0  0  0  0  0  0  0  0  0  0
   27.1600   26.7400   32.3400 N   0  0  0  0  0  0  0  0  0  0  0  0
   23.1484   26.7009   35.4633 C   0  0  0  0  0  0  0  0  0  0  0  0
   22.3964   26.6026   36.5866 N   0  0  0  0  0  0  0  0  0  0  0  0
   21.0481   26.4665   36.5451 C   0  0  0  0  0  0  0  0  0  0  0  0
   20.3565   26.4408   35.3204 C   0  0  0  0  0  0  0  0  0  0  0  0
   18.8566   26.1887   35.4152 C   0  0  0  0  0  0  0  0  0  0  0  0
   18.0027   26.5984   34.2147 C   0  0  0  0  0  0  0  0  0  0  0  0
   18.1971   25.6503   33.1140 N   0  0  0  0  0  0  0  0  0  0  0  0
   19.4862   25.5537   32.4921 C   0  0  0  0  0  0  0  0  0  0  0  0
   19.7575   24.5790   31.7385 O   0  0  0  0  0  0  0  0  0  0  0  0
   20.5188   26.6102   32.7294 C   0  0  0  0  0  0  0  0  0  0  0  0
   21.1203   26.5378   34.1173 C   0  0  0  0  0  0  0  0  0  0  0  0
   22.5155   26.6952   34.2135 C   0  0  0  0  0  0  0  0  0  0  0  0
   17.1137   24.7626   32.6822 C   0  0  0  0  0  0  0  0  0  0  0  0
  1  2  1  0
  2  3  2  0
  2  4  1  0
  4  5  2  0
  5  6  1  0
  6  7  2  0
  7  8  1  0
  8  9  2  0
  9 10  1  0
 10 11  2  0
 11 12  1  0
 12 13  2  0
 13 14  1  0
  1 15  1  0
 15 16  2  0
 16 17  1  0
 17 18  2  0
 18 19  1  0
 19 20  1  0
 20 21  1  0
 21 22  1  0
 22 23  2  0
 22 24  1  0
 24 25  1  0
 25 26  2  0
 21 27  1  0
 13  4  1  0
 26 15  1  0
 12  7  1  0
 25 18  1  0
M  END
>  <AAScore>  (1) 
1128.4060892517048

>  <RootName>  (1) 
./4ZLY/04_DeltaGEst/trajectory_05/rank_00/lead_0324

$$$$
