confid_7
     RDKit          3D

 29 33  0  0  0  0  0  0  0  0999 V2000
   25.3300   26.2600   34.7600 N   0  0  0  0  0  0  0  0  0  0  0  0
   26.1200   25.9200   33.6900 C   0  0  0  0  0  0  0  0  0  0  0  0
   25.6300   25.1100   32.9400 O   0  0  0  0  0  0  0  0  0  0  0  0
   27.5200   26.3800   33.4600 C   0  0  0  0  0  0  0  0  0  0  0  0
   28.1600   26.6300   34.6100 N   0  0  0  0  0  0  0  0  0  0  0  0
   29.4800   26.8500   34.5700 N   0  0  0  0  0  0  0  0  0  0  0  0
   30.1900   26.7800   33.4400 C   0  0  0  0  0  0  0  0  0  0  0  0
   31.5600   27.0500   33.5000 C   0  0  0  0  0  0  0  0  0  0  0  0
   32.2700   27.2400   32.3100 C   0  0  0  0  0  0  0  0  0  0  0  0
   31.6100   27.2500   31.0800 C   0  0  0  0  0  0  0  0  0  0  0  0
   30.2700   26.8700   31.0600 C   0  0  0  0  0  0  0  0  0  0  0  0
   29.5100   26.6900   32.2300 C   0  0  0  0  0  0  0  0  0  0  0  0
   28.1400   26.4100   32.2000 C   0  0  0  0  0  0  0  0  0  0  0  0
   27.4300   26.1300   31.0500 N   0  0  0  0  0  0  0  0  0  0  0  0
   26.5166   27.1348   30.4951 C   0  0  0  0  0  0  0  0  0  0  0  0
   26.6602   27.1823   28.9713 C   0  0  0  0  0  0  0  0  0  0  0  0
   26.6294   25.8333   28.3819 N   0  0  0  0  0  0  0  0  0  0  0  0
   26.3956   25.6874   26.9677 C   0  0  0  0  0  0  0  0  0  0  0  0
   25.3107   24.9081   26.5039 C   0  0  0  0  0  0  0  0  0  0  0  0
   25.0683   24.7670   25.1304 C   0  0  0  0  0  0  0  0  0  0  0  0
   25.9278   25.4148   24.2486 C   0  0  0  0  0  0  0  0  0  0  0  0
   25.9013   25.4262   22.7624 C   0  0  0  0  0  0  0  0  0  0  0  0
   27.1084   26.2966   22.5241 C   0  0  0  0  0  0  0  0  0  0  0  0
   27.6729   26.6794   23.6269 N   0  0  0  0  0  0  0  0  0  0  0  0
   26.9570   26.1460   24.6972 N   0  0  0  0  0  0  0  0  0  0  0  0
   27.2357   26.3094   26.0169 C   0  0  0  0  0  0  0  0  0  0  0  0
   28.2366   26.9867   26.3735 O   0  0  0  0  0  0  0  0  0  0  0  0
   26.5965   24.6459   29.2469 C   0  0  0  0  0  0  0  0  0  0  0  0
   27.5717   24.8108   30.4166 C   0  0  0  0  0  0  0  0  0  0  0  0
  1  2  1  0
  2  3  2  0
  2  4  1  0
  4  5  2  0
  5  6  1  0
  6  7  2  0
  7  8  1  0
  8  9  2  0
  9 10  1  0
 10 11  2  0
 11 12  1  0
 12 13  2  0
 13 14  1  0
 14 15  1  0
 15 16  1  0
 16 17  1  0
 17 18  1  0
 18 19  2  0
 19 20  1  0
 20 21  2  0
 21 22  1  0
 22 23  1  0
 23 24  2  0
 24 25  1  0
 25 26  1  0
 26 27  2  0
 17 28  1  0
 28 29  1  0
 13  4  1  0
 29 14  1  0
 12  7  1  0
 26 18  1  0
 25 21  1  0
M  END
>  <AAScore>  (1) 
1.885667126628448

>  <RootName>  (1) 
./4ZLY/04_DeltaGEst/trajectory_03/rank_01/lead_0422

$$$$
