confid_14
     RDKit          3D

 30 33  0  0  0  0  0  0  0  0999 V2000
   24.2000   26.2400   35.6900 N   0  0  0  0  0  0  0  0  0  0  0  0
   24.8500   26.2800   34.4800 C   0  0  0  0  0  0  0  0  0  0  0  0
   24.3100   25.7400   33.5400 O   0  0  0  0  0  0  0  0  0  0  0  0
   26.1800   26.9700   34.4700 C   0  0  0  0  0  0  0  0  0  0  0  0
   26.6500   27.6000   35.5500 N   0  0  0  0  0  0  0  0  0  0  0  0
   27.7900   28.2700   35.6200 N   0  0  0  0  0  0  0  0  0  0  0  0
   28.5400   28.3000   34.5100 C   0  0  0  0  0  0  0  0  0  0  0  0
   29.7700   28.9400   34.5600 C   0  0  0  0  0  0  0  0  0  0  0  0
   30.7000   28.8900   33.5000 C   0  0  0  0  0  0  0  0  0  0  0  0
   30.3700   28.1400   32.3700 C   0  0  0  0  0  0  0  0  0  0  0  0
   29.1200   27.5200   32.2800 C   0  0  0  0  0  0  0  0  0  0  0  0
   28.2100   27.6100   33.3300 C   0  0  0  0  0  0  0  0  0  0  0  0
   26.9700   26.9700   33.3100 C   0  0  0  0  0  0  0  0  0  0  0  0
   26.5300   26.2400   32.2200 N   0  0  0  0  0  0  0  0  0  0  0  0
   30.1364   29.6713   35.7417 N   0  0  0  0  0  0  0  0  0  0  0  0
   31.2171   29.1622   36.5965 C   0  0  0  0  0  0  0  0  0  0  0  0
   31.4438   30.0711   37.8084 C   0  0  0  0  0  0  0  0  0  0  0  0
   30.1518   30.4558   38.3960 N   0  0  0  0  0  0  0  0  0  0  0  0
   29.9532   30.4412   39.8229 C   0  0  0  0  0  0  0  0  0  0  0  0
   29.2397   31.3320   40.3593 O   0  0  0  0  0  0  0  0  0  0  0  0
   30.5184   29.3632   40.6660 C   0  0  0  0  0  0  0  0  0  0  0  0
   30.4390   28.0329   40.2177 C   0  0  0  0  0  0  0  0  0  0  0  0
   30.9466   26.9898   40.9963 C   0  0  0  0  0  0  0  0  0  0  0  0
   30.8627   25.7110   40.5535 F   0  0  0  0  0  0  0  0  0  0  0  0
   31.5349   27.2627   42.2323 C   0  0  0  0  0  0  0  0  0  0  0  0
   31.6189   28.5788   42.6913 C   0  0  0  0  0  0  0  0  0  0  0  0
   31.1135   29.6325   41.9192 C   0  0  0  0  0  0  0  0  0  0  0  0
   31.2978   31.2732   42.5313 Cl  0  0  0  0  0  0  0  0  0  0  0  0
   29.0838   30.9859   37.5341 C   0  0  0  0  0  0  0  0  0  0  0  0
   29.4742   30.9436   36.0518 C   0  0  0  0  0  0  0  0  0  0  0  0
  1  2  1  0
  2  3  2  0
  2  4  1  0
  4  5  2  0
  5  6  1  0
  6  7  2  0
  7  8  1  0
  8  9  2  0
  9 10  1  0
 10 11  2  0
 11 12  1  0
 12 13  2  0
 13 14  1  0
  8 15  1  0
 15 16  1  0
 16 17  1  0
 17 18  1  0
 18 19  1  0
 19 20  2  0
 19 21  1  0
 21 22  2  0
 22 23  1  0
 23 24  1  0
 23 25  2  0
 25 26  1  0
 26 27  2  0
 27 28  1  0
 18 29  1  0
 29 30  1  0
 13  4  1  0
 30 15  1  0
 12  7  1  0
 27 21  1  0
M  END
>  <AAScore>  (1) 
-8.676563856451047

>  <RootName>  (1) 
./4ZLY/04_DeltaGEst/trajectory_04/rank_01/lead_0313

$$$$
