confid_10
     RDKit          3D

 30 33  0  0  0  0  0  0  0  0999 V2000
   24.2000   26.2400   35.6900 N   0  0  0  0  0  0  0  0  0  0  0  0
   24.8500   26.2800   34.4800 C   0  0  0  0  0  0  0  0  0  0  0  0
   24.3100   25.7400   33.5400 O   0  0  0  0  0  0  0  0  0  0  0  0
   26.1800   26.9700   34.4700 C   0  0  0  0  0  0  0  0  0  0  0  0
   26.6500   27.6000   35.5500 N   0  0  0  0  0  0  0  0  0  0  0  0
   27.7900   28.2700   35.6200 N   0  0  0  0  0  0  0  0  0  0  0  0
   28.5400   28.3000   34.5100 C   0  0  0  0  0  0  0  0  0  0  0  0
   29.7700   28.9400   34.5600 C   0  0  0  0  0  0  0  0  0  0  0  0
   30.7000   28.8900   33.5000 C   0  0  0  0  0  0  0  0  0  0  0  0
   30.3700   28.1400   32.3700 C   0  0  0  0  0  0  0  0  0  0  0  0
   29.1200   27.5200   32.2800 C   0  0  0  0  0  0  0  0  0  0  0  0
   28.2100   27.6100   33.3300 C   0  0  0  0  0  0  0  0  0  0  0  0
   26.9700   26.9700   33.3100 C   0  0  0  0  0  0  0  0  0  0  0  0
   26.5300   26.2400   32.2200 N   0  0  0  0  0  0  0  0  0  0  0  0
   23.1407   25.3245   36.0086 C   0  0  0  0  0  0  0  0  0  0  0  0
   21.9616   25.8173   36.2599 N   0  0  0  0  0  0  0  0  0  0  0  0
   20.8481   25.0984   36.8012 C   0  0  0  0  0  0  0  0  0  0  0  0
   19.8141   24.6700   36.0560 C   0  0  0  0  0  0  0  0  0  0  0  0
   18.5392   24.2889   36.7757 C   0  0  0  0  0  0  0  0  0  0  0  0
   17.4915   23.8731   35.8260 N   0  0  0  0  0  0  0  0  0  0  0  0
   17.3899   24.8122   34.6993 C   0  0  0  0  0  0  0  0  0  0  0  0
   18.6239   24.6379   33.8167 C   0  0  0  0  0  0  0  0  0  0  0  0
   19.8657   24.5715   34.6072 N   0  0  0  0  0  0  0  0  0  0  0  0
   21.0916   24.1662   33.8965 C   0  0  0  0  0  0  0  0  0  0  0  0
   21.7074   22.8817   34.5032 C   0  0  0  0  0  0  0  0  0  0  0  0
   23.1907   23.0270   34.8814 C   0  0  0  0  0  0  0  0  0  0  0  0
   23.4445   23.8485   36.1604 C   0  0  0  0  0  0  0  0  0  0  0  0
   16.1946   23.5776   36.4757 C   0  0  0  0  0  0  0  0  0  0  0  0
   15.4385   24.8173   36.9933 C   0  0  0  0  0  0  0  0  0  0  0  0
   14.2009   24.4316   37.5273 O   0  0  0  0  0  0  0  0  0  0  0  0
  1  2  1  0
  2  3  2  0
  2  4  1  0
  4  5  2  0
  5  6  1  0
  6  7  2  0
  7  8  1  0
  8  9  2  0
  9 10  1  0
 10 11  2  0
 11 12  1  0
 12 13  2  0
 13 14  1  0
  1 15  1  0
 15 16  2  0
 16 17  1  0
 17 18  2  0
 18 19  1  0
 19 20  1  0
 20 21  1  0
 21 22  1  0
 22 23  1  0
 23 24  1  0
 24 25  1  0
 25 26  1  0
 26 27  1  0
 20 28  1  0
 28 29  1  0
 29 30  1  0
 13  4  1  0
 27 15  1  0
 12  7  1  0
 23 18  1  0
M  END
>  <AAScore>  (1) 
2705.767846014694

>  <RootName>  (1) 
./4ZLY/04_DeltaGEst/trajectory_04/rank_00/lead_0015

$$$$
