confid_12
     RDKit          3D

 27 30  0  0  0  0  0  0  0  0999 V2000
   24.5500   26.3900   36.2500 N   0  0  0  0  0  0  0  0  0  0  0  0
   25.6000   26.1300   35.4000 C   0  0  0  0  0  0  0  0  0  0  0  0
   25.4300   25.4300   34.4200 O   0  0  0  0  0  0  0  0  0  0  0  0
   26.9800   26.6300   35.7100 C   0  0  0  0  0  0  0  0  0  0  0  0
   27.3200   26.8200   36.9800 N   0  0  0  0  0  0  0  0  0  0  0  0
   28.4700   27.4000   37.3100 N   0  0  0  0  0  0  0  0  0  0  0  0
   29.4000   27.6300   36.3700 C   0  0  0  0  0  0  0  0  0  0  0  0
   30.6600   28.0500   36.8000 C   0  0  0  0  0  0  0  0  0  0  0  0
   31.5700   28.3600   35.7800 C   0  0  0  0  0  0  0  0  0  0  0  0
   31.3700   28.1000   34.4300 C   0  0  0  0  0  0  0  0  0  0  0  0
   30.1200   27.5900   34.0500 C   0  0  0  0  0  0  0  0  0  0  0  0
   29.1500   27.3400   35.0300 C   0  0  0  0  0  0  0  0  0  0  0  0
   27.8800   26.8900   34.6600 C   0  0  0  0  0  0  0  0  0  0  0  0
   27.4800   26.6100   33.3700 N   0  0  0  0  0  0  0  0  0  0  0  0
   23.1516   26.3192   35.9037 C   0  0  0  0  0  0  0  0  0  0  0  0
   22.3220   26.1327   36.9028 N   0  0  0  0  0  0  0  0  0  0  0  0
   20.8921   26.0491   37.0008 C   0  0  0  0  0  0  0  0  0  0  0  0
   20.1132   25.9938   35.9415 C   0  0  0  0  0  0  0  0  0  0  0  0
   18.7068   26.3291   35.5397 C   0  0  0  0  0  0  0  0  0  0  0  0
   18.9736   26.3034   34.1718 O   0  0  0  0  0  0  0  0  0  0  0  0
   20.2768   25.9001   34.4698 C   0  0  2  0  0  0  0  0  0  0  0  0
   20.5559   24.4559   33.9651 C   0  0  0  0  0  0  0  0  0  0  0  0
   19.3996   23.5198   34.1835 C   0  0  0  0  0  0  0  0  0  0  0  0
   18.3555   23.4218   33.2151 N   0  0  0  0  0  0  0  0  0  0  0  0
   19.3331   22.8426   35.2440 O   0  0  0  0  0  0  0  0  0  0  0  0
   21.3334   26.9304   34.0520 C   0  0  0  0  0  0  0  0  0  0  0  0
   22.7623   26.4963   34.4278 C   0  0  0  0  0  0  0  0  0  0  0  0
  1  2  1  0
  2  3  2  0
  2  4  1  0
  4  5  2  0
  5  6  1  0
  6  7  2  0
  7  8  1  0
  8  9  2  0
  9 10  1  0
 10 11  2  0
 11 12  1  0
 12 13  2  0
 13 14  1  0
  1 15  1  0
 15 16  2  0
 16 17  1  0
 17 18  2  0
 18 19  1  0
 19 20  1  0
 20 21  1  0
 21 22  1  1
 22 23  1  0
 23 24  1  0
 23 25  2  0
 21 26  1  0
 26 27  1  0
 13  4  1  0
 27 15  1  0
 12  7  1  0
 21 18  1  0
M  END
>  <AAScore>  (1) 
744.2333031536425

>  <RootName>  (1) 
./4ZLY/04_DeltaGEst/trajectory_01/rank_00/lead_0067

$$$$
