confid_7
     RDKit          3D

 28 31  0  0  0  0  0  0  0  0999 V2000
   24.2000   26.2400   35.6900 N   0  0  0  0  0  0  0  0  0  0  0  0
   24.8500   26.2800   34.4800 C   0  0  0  0  0  0  0  0  0  0  0  0
   24.3100   25.7400   33.5400 O   0  0  0  0  0  0  0  0  0  0  0  0
   26.1800   26.9700   34.4700 C   0  0  0  0  0  0  0  0  0  0  0  0
   26.6500   27.6000   35.5500 N   0  0  0  0  0  0  0  0  0  0  0  0
   27.7900   28.2700   35.6200 N   0  0  0  0  0  0  0  0  0  0  0  0
   28.5400   28.3000   34.5100 C   0  0  0  0  0  0  0  0  0  0  0  0
   29.7700   28.9400   34.5600 C   0  0  0  0  0  0  0  0  0  0  0  0
   30.7000   28.8900   33.5000 C   0  0  0  0  0  0  0  0  0  0  0  0
   30.3700   28.1400   32.3700 C   0  0  0  0  0  0  0  0  0  0  0  0
   29.1200   27.5200   32.2800 C   0  0  0  0  0  0  0  0  0  0  0  0
   28.2100   27.6100   33.3300 C   0  0  0  0  0  0  0  0  0  0  0  0
   26.9700   26.9700   33.3100 C   0  0  0  0  0  0  0  0  0  0  0  0
   26.5300   26.2400   32.2200 N   0  0  0  0  0  0  0  0  0  0  0  0
   30.1413   29.6900   35.7331 N   0  0  0  0  0  0  0  0  0  0  0  0
   31.2990   29.2889   36.5336 C   0  0  0  0  0  0  0  0  0  0  0  0
   32.2625   30.4665   36.6535 C   0  0  0  0  0  0  0  0  0  0  0  0
   31.5458   31.7275   37.0672 C   0  0  0  0  0  0  0  0  0  0  0  0
   32.2758   32.7703   37.6538 C   0  0  0  0  0  0  0  0  0  0  0  0
   31.6317   33.9678   37.9905 C   0  0  0  0  0  0  0  0  0  0  0  0
   30.3017   34.1086   37.7406 N   0  0  0  0  0  0  0  0  0  0  0  0
   29.5691   33.1234   37.1597 C   0  0  0  0  0  0  0  0  0  0  0  0
   30.1727   31.9129   36.7951 C   0  0  0  0  0  0  0  0  0  0  0  0
   29.3247   30.8214   36.1870 C   0  0  0  0  0  0  0  0  0  0  0  0
   32.4009   35.0903   38.6230 C   0  0  0  0  0  0  0  0  0  0  0  0
   32.8871   34.6871   39.8526 F   0  0  0  0  0  0  0  0  0  0  0  0
   33.4605   35.4451   37.8088 F   0  0  0  0  0  0  0  0  0  0  0  0
   31.5886   36.1956   38.8042 F   0  0  0  0  0  0  0  0  0  0  0  0
  1  2  1  0
  2  3  2  0
  2  4  1  0
  4  5  2  0
  5  6  1  0
  6  7  2  0
  7  8  1  0
  8  9  2  0
  9 10  1  0
 10 11  2  0
 11 12  1  0
 12 13  2  0
 13 14  1  0
  8 15  1  0
 15 16  1  0
 16 17  1  0
 17 18  1  0
 18 19  2  0
 19 20  1  0
 20 21  2  0
 21 22  1  0
 22 23  2  0
 23 24  1  0
 20 25  1  0
 25 26  1  0
 25 27  1  0
 25 28  1  0
 13  4  1  0
 24 15  1  0
 12  7  1  0
 23 18  1  0
M  END
>  <AAScore>  (1) 
-7.61211743477442

>  <RootName>  (1) 
./4ZLY/04_DeltaGEst/trajectory_04/rank_01/lead_0154

$$$$
