confid_14
     RDKit          3D

 28 31  0  0  0  0  0  0  0  0999 V2000
   24.2000   26.2400   35.6900 N   0  0  0  0  0  0  0  0  0  0  0  0
   24.8500   26.2800   34.4800 C   0  0  0  0  0  0  0  0  0  0  0  0
   24.3100   25.7400   33.5400 O   0  0  0  0  0  0  0  0  0  0  0  0
   26.1800   26.9700   34.4700 C   0  0  0  0  0  0  0  0  0  0  0  0
   26.6500   27.6000   35.5500 N   0  0  0  0  0  0  0  0  0  0  0  0
   27.7900   28.2700   35.6200 N   0  0  0  0  0  0  0  0  0  0  0  0
   28.5400   28.3000   34.5100 C   0  0  0  0  0  0  0  0  0  0  0  0
   29.7700   28.9400   34.5600 C   0  0  0  0  0  0  0  0  0  0  0  0
   30.7000   28.8900   33.5000 C   0  0  0  0  0  0  0  0  0  0  0  0
   30.3700   28.1400   32.3700 C   0  0  0  0  0  0  0  0  0  0  0  0
   29.1200   27.5200   32.2800 C   0  0  0  0  0  0  0  0  0  0  0  0
   28.2100   27.6100   33.3300 C   0  0  0  0  0  0  0  0  0  0  0  0
   26.9700   26.9700   33.3100 C   0  0  0  0  0  0  0  0  0  0  0  0
   26.5300   26.2400   32.2200 N   0  0  0  0  0  0  0  0  0  0  0  0
   30.1464   29.6586   35.7476 N   0  0  0  0  0  0  0  0  0  0  0  0
   31.2151   29.0902   36.5868 C   0  0  0  0  0  0  0  0  0  0  0  0
   31.7538   30.0541   37.6520 C   0  0  0  0  0  0  0  0  0  0  0  0
   32.3852   31.2739   37.0348 C   0  0  0  0  0  0  0  0  0  0  0  0
   33.6384   31.7993   37.3172 C   0  0  0  0  0  0  0  0  0  0  0  0
   33.8249   32.9347   36.6193 N   0  0  0  0  0  0  0  0  0  0  0  0
   32.7355   33.1462   35.8964 N   0  0  0  0  0  0  0  0  0  0  0  0
   32.5608   34.3305   35.0551 C   0  0  0  0  0  0  0  0  0  0  0  0
   31.9871   35.4813   35.8836 C   0  0  0  0  0  0  0  0  0  0  0  0
   31.7509   36.7201   35.0257 C   0  0  0  0  0  0  0  0  0  0  0  0
   31.8261   32.1721   36.1330 C   0  0  0  0  0  0  0  0  0  0  0  0
   30.4837   32.0861   35.4420 C   0  0  0  0  0  0  0  0  0  0  0  0
   29.5620   30.9882   35.9778 C   0  0  0  0  0  0  0  0  0  0  0  0
   34.6515   31.2348   38.2594 C   0  0  0  0  0  0  0  0  0  0  0  0
  1  2  1  0
  2  3  2  0
  2  4  1  0
  4  5  2  0
  5  6  1  0
  6  7  2  0
  7  8  1  0
  8  9  2  0
  9 10  1  0
 10 11  2  0
 11 12  1  0
 12 13  2  0
 13 14  1  0
  8 15  1  0
 15 16  1  0
 16 17  1  0
 17 18  1  0
 18 19  1  0
 19 20  2  0
 20 21  1  0
 21 22  1  0
 22 23  1  0
 23 24  1  0
 21 25  1  0
 25 26  1  0
 26 27  1  0
 19 28  1  0
 13  4  1  0
 27 15  1  0
 12  7  1  0
 25 18  2  0
M  END
>  <AAScore>  (1) 
16.01023422442002

>  <RootName>  (1) 
./4ZLY/04_DeltaGEst/trajectory_04/rank_01/lead_0082

$$$$
