confid_15
     RDKit          3D

 27 30  0  0  0  0  0  0  0  0999 V2000
   24.5500   26.3900   36.2500 N   0  0  0  0  0  0  0  0  0  0  0  0
   25.6000   26.1300   35.4000 C   0  0  0  0  0  0  0  0  0  0  0  0
   25.4300   25.4300   34.4200 O   0  0  0  0  0  0  0  0  0  0  0  0
   26.9800   26.6300   35.7100 C   0  0  0  0  0  0  0  0  0  0  0  0
   27.3200   26.8200   36.9800 N   0  0  0  0  0  0  0  0  0  0  0  0
   28.4700   27.4000   37.3100 N   0  0  0  0  0  0  0  0  0  0  0  0
   29.4000   27.6300   36.3700 C   0  0  0  0  0  0  0  0  0  0  0  0
   30.6600   28.0500   36.8000 C   0  0  0  0  0  0  0  0  0  0  0  0
   31.5700   28.3600   35.7800 C   0  0  0  0  0  0  0  0  0  0  0  0
   31.3700   28.1000   34.4300 C   0  0  0  0  0  0  0  0  0  0  0  0
   30.1200   27.5900   34.0500 C   0  0  0  0  0  0  0  0  0  0  0  0
   29.1500   27.3400   35.0300 C   0  0  0  0  0  0  0  0  0  0  0  0
   27.8800   26.8900   34.6600 C   0  0  0  0  0  0  0  0  0  0  0  0
   27.4800   26.6100   33.3700 N   0  0  0  0  0  0  0  0  0  0  0  0
   30.9534   28.3164   38.1795 N   0  0  0  0  0  0  0  0  0  0  0  0
   31.3721   27.2080   39.0361 C   0  0  0  0  0  0  0  0  0  0  0  0
   30.8342   27.4081   40.4488 C   0  0  0  0  0  0  0  0  0  0  0  0
   31.2120   28.7690   40.9871 C   0  0  0  0  0  0  0  0  0  0  0  0
   31.3419   28.9940   42.3816 C   0  0  0  0  0  0  0  0  0  0  0  0
   31.6369   30.2774   42.8637 C   0  0  0  0  0  0  0  0  0  0  0  0
   31.7920   31.3507   41.9777 C   0  0  0  0  0  0  0  0  0  0  0  0
   32.0366   32.7357   42.5010 C   0  0  0  0  0  0  0  0  0  0  0  0
   31.6163   31.1410   40.6002 C   0  0  0  0  0  0  0  0  0  0  0  0
   31.3361   29.8613   40.0950 C   0  0  0  0  0  0  0  0  0  0  0  0
   31.1316   29.7110   38.6023 C   0  0  0  0  0  0  0  0  0  0  0  0
   31.1665   27.9265   43.3389 C   0  0  0  0  0  0  0  0  0  0  0  0
   31.0268   27.0699   44.1062 N   0  0  0  0  0  0  0  0  0  0  0  0
  1  2  1  0
  2  3  2  0
  2  4  1  0
  4  5  2  0
  5  6  1  0
  6  7  2  0
  7  8  1  0
  8  9  2  0
  9 10  1  0
 10 11  2  0
 11 12  1  0
 12 13  2  0
 13 14  1  0
  8 15  1  0
 15 16  1  0
 16 17  1  0
 17 18  1  0
 18 19  2  0
 19 20  1  0
 20 21  2  0
 21 22  1  0
 21 23  1  0
 23 24  2  0
 24 25  1  0
 19 26  1  0
 26 27  3  0
 13  4  1  0
 25 15  1  0
 12  7  1  0
 24 18  1  0
M  END
>  <AAScore>  (1) 
67.74562204319676

>  <RootName>  (1) 
./4ZLY/04_DeltaGEst/trajectory_01/rank_01/lead_0236

$$$$
