confid_11
     RDKit          3D

 31 34  0  0  0  0  0  0  0  0999 V2000
   24.2000   26.2400   35.6900 N   0  0  0  0  0  0  0  0  0  0  0  0
   24.8500   26.2800   34.4800 C   0  0  0  0  0  0  0  0  0  0  0  0
   24.3100   25.7400   33.5400 O   0  0  0  0  0  0  0  0  0  0  0  0
   26.1800   26.9700   34.4700 C   0  0  0  0  0  0  0  0  0  0  0  0
   26.6500   27.6000   35.5500 N   0  0  0  0  0  0  0  0  0  0  0  0
   27.7900   28.2700   35.6200 N   0  0  0  0  0  0  0  0  0  0  0  0
   28.5400   28.3000   34.5100 C   0  0  0  0  0  0  0  0  0  0  0  0
   29.7700   28.9400   34.5600 C   0  0  0  0  0  0  0  0  0  0  0  0
   30.7000   28.8900   33.5000 C   0  0  0  0  0  0  0  0  0  0  0  0
   30.3700   28.1400   32.3700 C   0  0  0  0  0  0  0  0  0  0  0  0
   29.1200   27.5200   32.2800 C   0  0  0  0  0  0  0  0  0  0  0  0
   28.2100   27.6100   33.3300 C   0  0  0  0  0  0  0  0  0  0  0  0
   26.9700   26.9700   33.3100 C   0  0  0  0  0  0  0  0  0  0  0  0
   26.5300   26.2400   32.2200 N   0  0  0  0  0  0  0  0  0  0  0  0
   23.2857   25.1951   36.0728 C   0  0  0  0  0  0  0  0  0  0  0  0
   23.5844   23.9590   35.7682 N   0  0  0  0  0  0  0  0  0  0  0  0
   22.9347   22.7874   36.2597 C   0  0  0  0  0  0  0  0  0  0  0  0
   22.0457   22.0455   35.5622 C   0  0  0  0  0  0  0  0  0  0  0  0
   21.4053   20.8625   36.2580 C   0  0  0  0  0  0  0  0  0  0  0  0
   21.2464   19.6870   35.3671 N   0  0  0  0  0  0  0  0  0  0  0  0
   21.1972   19.9788   33.9131 C   0  0  0  0  0  0  0  0  0  0  0  0
   20.6552   21.3798   33.6204 C   0  0  0  0  0  0  0  0  0  0  0  0
   21.5300   22.3789   34.2453 N   0  0  0  0  0  0  0  0  0  0  0  0
   21.8651   23.5892   33.4776 C   0  0  0  0  0  0  0  0  0  0  0  0
   21.1004   24.8602   33.9265 C   0  0  0  0  0  0  0  0  0  0  0  0
   19.8443   24.6516   35.2521 S   0  0  0  0  0  0  0  0  0  0  0  0
   20.7862   24.7628   36.8356 C   0  0  0  0  0  0  0  0  0  0  0  0
   22.0808   25.6019   36.9052 C   0  0  0  0  0  0  0  0  0  0  0  0
   20.2170   18.7359   35.8677 C   0  0  0  0  0  0  0  0  0  0  0  0
   18.7797   19.1146   35.4594 C   0  0  0  0  0  0  0  0  0  0  0  0
   20.5531   17.3027   35.4415 C   0  0  0  0  0  0  0  0  0  0  0  0
  1  2  1  0
  2  3  2  0
  2  4  1  0
  4  5  2  0
  5  6  1  0
  6  7  2  0
  7  8  1  0
  8  9  2  0
  9 10  1  0
 10 11  2  0
 11 12  1  0
 12 13  2  0
 13 14  1  0
  1 15  1  0
 15 16  2  0
 16 17  1  0
 17 18  2  0
 18 19  1  0
 19 20  1  0
 20 21  1  0
 21 22  1  0
 22 23  1  0
 23 24  1  0
 24 25  1  0
 25 26  1  0
 26 27  1  0
 27 28  1  0
 20 29  1  0
 29 30  1  0
 29 31  1  0
 13  4  1  0
 28 15  1  0
 12  7  1  0
 23 18  1  0
M  END
>  <AAScore>  (1) 
8367.727514987933

>  <RootName>  (1) 
./4ZLY/04_DeltaGEst/trajectory_04/rank_00/lead_0414

$$$$
