confid_12
     RDKit          3D

 26 28  0  0  0  0  0  0  0  0999 V2000
   24.4800   26.1000   36.1300 N   0  0  0  0  0  0  0  0  0  0  0  0
   25.2500   26.2500   34.9900 C   0  0  0  0  0  0  0  0  0  0  0  0
   24.7400   25.7600   33.9900 O   0  0  0  0  0  0  0  0  0  0  0  0
   26.5900   26.8900   34.9600 C   0  0  0  0  0  0  0  0  0  0  0  0
   27.0600   27.2400   36.1600 N   0  0  0  0  0  0  0  0  0  0  0  0
   28.3000   27.7100   36.2400 N   0  0  0  0  0  0  0  0  0  0  0  0
   29.0500   27.9600   35.1500 C   0  0  0  0  0  0  0  0  0  0  0  0
   30.3400   28.4900   35.2600 C   0  0  0  0  0  0  0  0  0  0  0  0
   31.1100   28.8200   34.1400 C   0  0  0  0  0  0  0  0  0  0  0  0
   30.5200   28.6700   32.8800 C   0  0  0  0  0  0  0  0  0  0  0  0
   29.2900   28.0200   32.7700 C   0  0  0  0  0  0  0  0  0  0  0  0
   28.5200   27.7100   33.8900 C   0  0  0  0  0  0  0  0  0  0  0  0
   27.2700   27.0800   33.7600 C   0  0  0  0  0  0  0  0  0  0  0  0
   26.7500   26.8800   32.4900 N   0  0  0  0  0  0  0  0  0  0  0  0
   23.4769   25.0839   36.3275 C   0  0  0  0  0  0  0  0  0  0  0  0
   23.5203   23.8106   35.7299 C   0  0  0  0  0  0  0  0  0  0  0  0
   22.4559   22.9922   36.1076 C   0  0  0  0  0  0  0  0  0  0  0  0
   22.2042   21.6489   35.6468 N   0  0  0  0  0  0  0  0  0  0  0  0
   20.9096   21.0247   35.9238 C   0  0  0  0  0  0  0  0  0  0  0  0
   23.3935   20.7759   34.7178 S   0  0  0  0  0  6  0  0  0  0  0  0
   24.7622   20.9999   35.2973 O   0  0  0  0  0  0  0  0  0  0  0  0
   23.1009   19.3015   34.7596 O   0  0  0  0  0  0  0  0  0  0  0  0
   23.3513   21.3258   33.0259 C   0  0  0  0  0  0  0  0  0  0  0  0
   21.4775   23.8418   37.1882 S   0  0  0  0  0  0  0  0  0  0  0  0
   22.3898   25.2536   37.1854 C   0  0  0  0  0  0  0  0  0  0  0  0
   22.0783   26.4714   37.9929 C   0  0  0  0  0  0  0  0  0  0  0  0
  1  2  1  0
  2  3  2  0
  2  4  1  0
  4  5  2  0
  5  6  1  0
  6  7  2  0
  7  8  1  0
  8  9  2  0
  9 10  1  0
 10 11  2  0
 11 12  1  0
 12 13  2  0
 13 14  1  0
  1 15  1  0
 15 16  1  0
 16 17  2  0
 17 18  1  0
 18 19  1  0
 18 20  1  0
 20 21  2  0
 20 22  2  0
 20 23  1  0
 17 24  1  0
 24 25  1  0
 25 26  1  0
 13  4  1  0
 25 15  2  0
 12  7  1  0
M  END
>  <AAScore>  (1) 
415.8447798961575

>  <RootName>  (1) 
./4ZLY/04_DeltaGEst/trajectory_00/rank_00/lead_0318

$$$$
