confid_19
     RDKit          3D

 29 32  0  0  0  0  0  0  0  0999 V2000
   24.5500   26.3900   36.2500 N   0  0  0  0  0  0  0  0  0  0  0  0
   25.6000   26.1300   35.4000 C   0  0  0  0  0  0  0  0  0  0  0  0
   25.4300   25.4300   34.4200 O   0  0  0  0  0  0  0  0  0  0  0  0
   26.9800   26.6300   35.7100 C   0  0  0  0  0  0  0  0  0  0  0  0
   27.3200   26.8200   36.9800 N   0  0  0  0  0  0  0  0  0  0  0  0
   28.4700   27.4000   37.3100 N   0  0  0  0  0  0  0  0  0  0  0  0
   29.4000   27.6300   36.3700 C   0  0  0  0  0  0  0  0  0  0  0  0
   30.6600   28.0500   36.8000 C   0  0  0  0  0  0  0  0  0  0  0  0
   31.5700   28.3600   35.7800 C   0  0  0  0  0  0  0  0  0  0  0  0
   31.3700   28.1000   34.4300 C   0  0  0  0  0  0  0  0  0  0  0  0
   30.1200   27.5900   34.0500 C   0  0  0  0  0  0  0  0  0  0  0  0
   29.1500   27.3400   35.0300 C   0  0  0  0  0  0  0  0  0  0  0  0
   27.8800   26.8900   34.6600 C   0  0  0  0  0  0  0  0  0  0  0  0
   27.4800   26.6100   33.3700 N   0  0  0  0  0  0  0  0  0  0  0  0
   31.0166   28.2754   38.2247 C   0  0  0  0  0  0  0  0  0  0  0  0
   30.6189   27.5174   39.3130 C   0  0  0  0  0  0  0  0  0  0  0  0
   31.2466   28.0629   40.4160 C   0  0  0  0  0  0  0  0  0  0  0  0
   31.0658   27.5657   41.8215 C   0  0  0  0  0  0  0  0  0  0  0  0
   32.3059   27.7518   42.5820 N   0  0  0  0  0  0  0  0  0  0  0  0
   33.3982   26.8125   42.4650 C   0  0  0  0  0  0  0  0  0  0  0  0
   34.5835   27.2428   42.4055 O   0  0  0  0  0  0  0  0  0  0  0  0
   33.1575   25.3214   42.3855 C   0  0  0  0  0  0  0  0  0  0  0  0
   34.1610   24.5565   43.2578 C   0  0  0  0  0  0  0  0  0  0  0  0
   33.2375   24.8465   40.9312 C   0  0  0  0  0  0  0  0  0  0  0  0
   32.5215   29.0486   43.2413 C   0  0  0  0  0  0  0  0  0  0  0  0
   32.3017   30.2270   42.2757 C   0  0  0  0  0  0  0  0  0  0  0  0
   32.8771   29.9678   40.8751 C   0  0  0  0  0  0  0  0  0  0  0  0
   31.9842   29.1405   40.0505 N   0  0  0  0  0  0  0  0  0  0  0  0
   31.8676   29.2528   38.7121 C   0  0  0  0  0  0  0  0  0  0  0  0
  1  2  1  0
  2  3  2  0
  2  4  1  0
  4  5  2  0
  5  6  1  0
  6  7  2  0
  7  8  1  0
  8  9  2  0
  9 10  1  0
 10 11  2  0
 11 12  1  0
 12 13  2  0
 13 14  1  0
  8 15  1  0
 15 16  1  0
 16 17  2  0
 17 18  1  0
 18 19  1  0
 19 20  1  0
 20 21  2  0
 20 22  1  0
 22 23  1  0
 22 24  1  0
 19 25  1  0
 25 26  1  0
 26 27  1  0
 27 28  1  0
 28 29  1  0
 13  4  1  0
 29 15  2  0
 12  7  1  0
 28 17  1  0
M  END
>  <AAScore>  (1) 
922.6095615616726

>  <RootName>  (1) 
./4ZLY/04_DeltaGEst/trajectory_01/rank_01/lead_0284

$$$$
