confid_0
     RDKit          3D

 27 30  0  0  0  0  0  0  0  0999 V2000
   25.3300   26.2600   34.7600 N   0  0  0  0  0  0  0  0  0  0  0  0
   26.1200   25.9200   33.6900 C   0  0  0  0  0  0  0  0  0  0  0  0
   25.6300   25.1100   32.9400 O   0  0  0  0  0  0  0  0  0  0  0  0
   27.5200   26.3800   33.4600 C   0  0  0  0  0  0  0  0  0  0  0  0
   28.1600   26.6300   34.6100 N   0  0  0  0  0  0  0  0  0  0  0  0
   29.4800   26.8500   34.5700 N   0  0  0  0  0  0  0  0  0  0  0  0
   30.1900   26.7800   33.4400 C   0  0  0  0  0  0  0  0  0  0  0  0
   31.5600   27.0500   33.5000 C   0  0  0  0  0  0  0  0  0  0  0  0
   32.2700   27.2400   32.3100 C   0  0  0  0  0  0  0  0  0  0  0  0
   31.6100   27.2500   31.0800 C   0  0  0  0  0  0  0  0  0  0  0  0
   30.2700   26.8700   31.0600 C   0  0  0  0  0  0  0  0  0  0  0  0
   29.5100   26.6900   32.2300 C   0  0  0  0  0  0  0  0  0  0  0  0
   28.1400   26.4100   32.2000 C   0  0  0  0  0  0  0  0  0  0  0  0
   27.4300   26.1300   31.0500 N   0  0  0  0  0  0  0  0  0  0  0  0
   24.1678   25.5371   35.2199 C   0  0  0  0  0  0  0  0  0  0  0  0
   23.9202   24.2709   34.7833 N   0  0  0  0  0  0  0  0  0  0  0  0
   22.8536   23.5496   35.2140 C   0  0  0  0  0  0  0  0  0  0  0  0
   21.9539   24.1020   36.1334 C   0  0  0  0  0  0  0  0  0  0  0  0
   20.8035   23.2821   36.6591 C   0  0  0  0  0  0  0  0  0  0  0  0
   19.6579   24.1335   37.0055 N   0  0  0  0  0  0  0  0  0  0  0  0
   18.2964   23.5996   36.9251 C   0  0  0  0  0  0  0  0  0  0  0  0
   19.8784   25.4510   37.5423 C   0  0  0  0  0  0  0  0  0  0  0  0
   18.9068   26.1448   37.9487 O   0  0  0  0  0  0  0  0  0  0  0  0
   21.2708   25.9980   37.6600 C   0  0  0  0  0  0  0  0  0  0  0  0
   22.1818   25.4050   36.6141 C   0  0  0  0  0  0  0  0  0  0  0  0
   23.3049   26.1189   36.1632 C   0  0  0  0  0  0  0  0  0  0  0  0
   23.5558   27.3673   36.6364 F   0  0  0  0  0  0  0  0  0  0  0  0
  1  2  1  0
  2  3  2  0
  2  4  1  0
  4  5  2  0
  5  6  1  0
  6  7  2  0
  7  8  1  0
  8  9  2  0
  9 10  1  0
 10 11  2  0
 11 12  1  0
 12 13  2  0
 13 14  1  0
  1 15  1  0
 15 16  2  0
 16 17  1  0
 17 18  2  0
 18 19  1  0
 19 20  1  0
 20 21  1  0
 20 22  1  0
 22 23  2  0
 22 24  1  0
 24 25  1  0
 25 26  2  0
 26 27  1  0
 13  4  1  0
 26 15  1  0
 12  7  1  0
 25 18  1  0
M  END
>  <AAScore>  (1) 
11364.418087337135

>  <RootName>  (1) 
./4ZLY/04_DeltaGEst/trajectory_03/rank_00/lead_0210

$$$$
