confid_16
     RDKit          3D

 28 31  0  0  0  0  0  0  0  0999 V2000
   24.2000   26.2400   35.6900 N   0  0  0  0  0  0  0  0  0  0  0  0
   24.8500   26.2800   34.4800 C   0  0  0  0  0  0  0  0  0  0  0  0
   24.3100   25.7400   33.5400 O   0  0  0  0  0  0  0  0  0  0  0  0
   26.1800   26.9700   34.4700 C   0  0  0  0  0  0  0  0  0  0  0  0
   26.6500   27.6000   35.5500 N   0  0  0  0  0  0  0  0  0  0  0  0
   27.7900   28.2700   35.6200 N   0  0  0  0  0  0  0  0  0  0  0  0
   28.5400   28.3000   34.5100 C   0  0  0  0  0  0  0  0  0  0  0  0
   29.7700   28.9400   34.5600 C   0  0  0  0  0  0  0  0  0  0  0  0
   30.7000   28.8900   33.5000 C   0  0  0  0  0  0  0  0  0  0  0  0
   30.3700   28.1400   32.3700 C   0  0  0  0  0  0  0  0  0  0  0  0
   29.1200   27.5200   32.2800 C   0  0  0  0  0  0  0  0  0  0  0  0
   28.2100   27.6100   33.3300 C   0  0  0  0  0  0  0  0  0  0  0  0
   26.9700   26.9700   33.3100 C   0  0  0  0  0  0  0  0  0  0  0  0
   26.5300   26.2400   32.2200 N   0  0  0  0  0  0  0  0  0  0  0  0
   30.1374   29.6579   35.7499 N   0  0  0  0  0  0  0  0  0  0  0  0
   31.0227   29.0323   36.7382 C   0  0  0  0  0  0  0  0  0  0  0  0
   32.4684   29.5167   36.5761 C   0  0  0  0  0  0  0  0  0  0  0  0
   32.5653   30.9720   36.7297 N   0  0  0  0  0  0  0  0  0  0  0  0
   32.6909   31.5475   38.0696 C   0  0  0  0  0  0  0  0  0  0  0  0
   32.2239   31.8275   35.6240 C   0  0  0  0  0  0  0  0  0  0  0  0
   33.2225   32.5870   34.9685 C   0  0  0  0  0  0  0  0  0  0  0  0
   34.6809   32.4784   35.3472 C   0  0  0  0  0  0  0  0  0  0  0  0
   35.3665   31.3725   34.5513 C   0  0  0  0  0  0  0  0  0  0  0  0
   32.8644   33.4016   33.8814 C   0  0  0  0  0  0  0  0  0  0  0  0
   31.5386   33.4746   33.4553 C   0  0  0  0  0  0  0  0  0  0  0  0
   30.5529   32.7288   34.0991 C   0  0  0  0  0  0  0  0  0  0  0  0
   30.8841   31.9008   35.1819 C   0  0  0  0  0  0  0  0  0  0  0  0
   29.8141   31.0823   35.8548 C   0  0  0  0  0  0  0  0  0  0  0  0
  1  2  1  0
  2  3  2  0
  2  4  1  0
  4  5  2  0
  5  6  1  0
  6  7  2  0
  7  8  1  0
  8  9  2  0
  9 10  1  0
 10 11  2  0
 11 12  1  0
 12 13  2  0
 13 14  1  0
  8 15  1  0
 15 16  1  0
 16 17  1  0
 17 18  1  0
 18 19  1  0
 18 20  1  0
 20 21  2  0
 21 22  1  0
 22 23  1  0
 21 24  1  0
 24 25  2  0
 25 26  1  0
 26 27  2  0
 27 28  1  0
 13  4  1  0
 28 15  1  0
 12  7  1  0
 27 20  1  0
M  END
>  <AAScore>  (1) 
-5.59045260532676

>  <RootName>  (1) 
./4ZLY/04_DeltaGEst/trajectory_04/rank_01/lead_0452

$$$$
