confid_13
     RDKit          3D

 31 35  0  0  0  0  0  0  0  0999 V2000
   24.5700   26.8800   35.5900 N   0  0  0  0  0  0  0  0  0  0  0  0
   25.5000   26.4000   34.6900 C   0  0  0  0  0  0  0  0  0  0  0  0
   25.1700   25.5200   33.9100 O   0  0  0  0  0  0  0  0  0  0  0  0
   26.8400   27.0200   34.7400 C   0  0  0  0  0  0  0  0  0  0  0  0
   27.3800   27.2800   35.9400 N   0  0  0  0  0  0  0  0  0  0  0  0
   28.6200   27.7400   36.0300 N   0  0  0  0  0  0  0  0  0  0  0  0
   29.3800   28.0000   34.9600 C   0  0  0  0  0  0  0  0  0  0  0  0
   30.6700   28.5000   35.1300 C   0  0  0  0  0  0  0  0  0  0  0  0
   31.5400   28.6100   34.0300 C   0  0  0  0  0  0  0  0  0  0  0  0
   31.0900   28.2200   32.7700 C   0  0  0  0  0  0  0  0  0  0  0  0
   29.8000   27.7000   32.6000 C   0  0  0  0  0  0  0  0  0  0  0  0
   28.9600   27.5500   33.7100 C   0  0  0  0  0  0  0  0  0  0  0  0
   27.6600   27.0300   33.5900 C   0  0  0  0  0  0  0  0  0  0  0  0
   27.1600   26.7400   32.3400 N   0  0  0  0  0  0  0  0  0  0  0  0
   23.1866   26.4870   35.6303 C   0  0  0  0  0  0  0  0  0  0  0  0
   22.6235   26.0743   34.5276 N   0  0  0  0  0  0  0  0  0  0  0  0
   21.3125   25.5433   34.3872 C   0  0  0  0  0  0  0  0  0  0  0  0
   21.0894   24.3834   34.9621 C   0  0  0  0  0  0  0  0  0  0  0  0
   21.6459   23.3182   35.8916 C   0  0  1  0  0  0  0  0  0  0  0  0
   21.9034   23.9368   37.2827 C   0  0  0  0  0  0  0  0  0  0  0  0
   21.0474   25.0997   37.5813 N   0  0  0  0  0  0  0  0  0  0  0  0
   19.6950   24.8674   38.1117 C   0  0  0  0  0  0  0  0  0  0  0  0
   19.4235   25.6132   39.4382 C   0  0  0  0  0  0  0  0  0  0  0  0
   20.4745   26.5878   39.8202 N   0  0  0  0  0  0  0  0  0  0  0  0
   21.5375   25.9254   40.6114 C   0  0  0  0  0  0  0  0  0  0  0  0
   20.9835   27.3891   38.6640 C   0  0  0  0  0  0  0  0  0  0  0  0
   19.8360   28.2325   38.0598 C   0  0  0  0  0  0  0  0  0  0  0  0
   22.0733   28.3891   39.1399 C   0  0  0  0  0  0  0  0  0  0  0  0
   21.5326   26.4626   37.5902 C   0  0  0  0  0  0  0  0  0  0  0  0
   22.4211   26.9511   36.7604 N   0  0  0  0  0  0  0  0  0  0  0  0
   20.3285   23.1198   35.3640 C   0  0  0  0  0  0  0  0  0  0  0  0
  1  2  1  0
  2  3  2  0
  2  4  1  0
  4  5  2  0
  5  6  1  0
  6  7  2  0
  7  8  1  0
  8  9  2  0
  9 10  1  0
 10 11  2  0
 11 12  1  0
 12 13  2  0
 13 14  1  0
  1 15  1  0
 15 16  2  0
 16 17  1  0
 17 18  2  0
 18 19  1  0
 19 20  1  1
 20 21  1  0
 21 22  1  0
 22 23  1  0
 23 24  1  0
 24 25  1  0
 24 26  1  0
 26 27  1  0
 26 28  1  0
 26 29  1  0
 29 30  2  0
 19 31  1  0
 13  4  1  0
 30 15  1  0
 12  7  1  0
 31 18  1  0
 29 21  1  0
M  END
>  <AAScore>  (1) 
18657.446616013294

>  <RootName>  (1) 
./4ZLY/04_DeltaGEst/trajectory_05/rank_00/lead_0123

$$$$
