confid_0
     RDKit          3D

 29 33  0  0  0  0  0  0  0  0999 V2000
   24.6900   26.1200   35.5300 N   0  0  0  0  0  0  0  0  0  0  0  0
   25.6600   25.6700   34.6600 C   0  0  0  0  0  0  0  0  0  0  0  0
   25.2400   25.0100   33.7200 O   0  0  0  0  0  0  0  0  0  0  0  0
   27.0300   26.2200   34.8800 C   0  0  0  0  0  0  0  0  0  0  0  0
   27.3500   26.7300   36.0700 N   0  0  0  0  0  0  0  0  0  0  0  0
   28.5700   27.1800   36.3300 N   0  0  0  0  0  0  0  0  0  0  0  0
   29.5300   27.1100   35.3900 C   0  0  0  0  0  0  0  0  0  0  0  0
   30.8300   27.5700   35.6500 C   0  0  0  0  0  0  0  0  0  0  0  0
   31.8500   27.5400   34.6900 C   0  0  0  0  0  0  0  0  0  0  0  0
   31.5100   27.1200   33.4000 C   0  0  0  0  0  0  0  0  0  0  0  0
   30.2200   26.6300   33.1100 C   0  0  0  0  0  0  0  0  0  0  0  0
   29.2400   26.6600   34.1000 C   0  0  0  0  0  0  0  0  0  0  0  0
   27.9300   26.2600   33.8100 C   0  0  0  0  0  0  0  0  0  0  0  0
   27.5200   25.7100   32.6100 N   0  0  0  0  0  0  0  0  0  0  0  0
   23.3103   26.3355   35.1778 C   0  0  0  0  0  0  0  0  0  0  0  0
   22.9749   26.4824   33.9219 N   0  0  0  0  0  0  0  0  0  0  0  0
   21.6426   26.7256   33.4580 C   0  0  0  0  0  0  0  0  0  0  0  0
   20.6746   25.8728   33.7606 C   0  0  0  0  0  0  0  0  0  0  0  0
   19.1795   25.7693   33.7607 C   0  0  0  0  0  0  0  0  0  0  0  0
   19.1398   24.5590   34.4508 O   0  0  0  0  0  0  0  0  0  0  0  0
   20.5320   24.5355   34.4270 C   0  0  2  0  0  0  0  0  0  0  0  0
   21.1639   24.4337   35.8304 C   0  0  0  0  0  0  0  0  0  0  0  0
   21.3062   25.7641   36.5473 C   0  0  0  0  0  0  0  0  0  0  0  0
   22.3437   26.6059   36.2769 C   0  0  0  0  0  0  0  0  0  0  0  0
   22.5964   27.7712   37.0252 O   0  0  0  0  0  0  0  0  0  0  0  0
   22.0884   28.0570   38.3279 C   0  0  0  0  0  0  0  0  0  0  0  0
   21.9947   26.8665   39.0818 O   0  0  0  0  0  0  0  0  0  0  0  0
   20.7085   26.2877   38.9581 C   0  0  0  0  0  0  0  0  0  0  0  0
   20.2095   26.1602   37.5056 C   0  0  0  0  0  0  0  0  0  0  0  0
  1  2  1  0
  2  3  2  0
  2  4  1  0
  4  5  2  0
  5  6  1  0
  6  7  2  0
  7  8  1  0
  8  9  2  0
  9 10  1  0
 10 11  2  0
 11 12  1  0
 12 13  2  0
 13 14  1  0
  1 15  1  0
 15 16  2  0
 16 17  1  0
 17 18  2  0
 18 19  1  0
 19 20  1  0
 20 21  1  0
 21 22  1  1
 22 23  1  0
 23 24  2  0
 24 25  1  0
 25 26  1  0
 26 27  1  0
 27 28  1  0
 28 29  1  0
 13  4  1  0
 24 15  1  0
 12  7  1  0
 21 18  1  0
 29 23  1  0
M  END
>  <AAScore>  (1) 
110551.56508927852

>  <RootName>  (1) 
./4ZLY/04_DeltaGEst/trajectory_02/rank_00/lead_0013

$$$$
