confid_15
     RDKit          3D

 29 32  0  0  0  0  0  0  0  0999 V2000
   24.2000   26.2400   35.6900 N   0  0  0  0  0  0  0  0  0  0  0  0
   24.8500   26.2800   34.4800 C   0  0  0  0  0  0  0  0  0  0  0  0
   24.3100   25.7400   33.5400 O   0  0  0  0  0  0  0  0  0  0  0  0
   26.1800   26.9700   34.4700 C   0  0  0  0  0  0  0  0  0  0  0  0
   26.6500   27.6000   35.5500 N   0  0  0  0  0  0  0  0  0  0  0  0
   27.7900   28.2700   35.6200 N   0  0  0  0  0  0  0  0  0  0  0  0
   28.5400   28.3000   34.5100 C   0  0  0  0  0  0  0  0  0  0  0  0
   29.7700   28.9400   34.5600 C   0  0  0  0  0  0  0  0  0  0  0  0
   30.7000   28.8900   33.5000 C   0  0  0  0  0  0  0  0  0  0  0  0
   30.3700   28.1400   32.3700 C   0  0  0  0  0  0  0  0  0  0  0  0
   29.1200   27.5200   32.2800 C   0  0  0  0  0  0  0  0  0  0  0  0
   28.2100   27.6100   33.3300 C   0  0  0  0  0  0  0  0  0  0  0  0
   26.9700   26.9700   33.3100 C   0  0  0  0  0  0  0  0  0  0  0  0
   26.5300   26.2400   32.2200 N   0  0  0  0  0  0  0  0  0  0  0  0
   30.1293   29.7036   35.7299 N   0  0  0  0  0  0  0  0  0  0  0  0
   31.3810   29.4538   36.4480 C   0  0  0  0  0  0  0  0  0  0  0  0
   32.1915   30.7509   36.5229 C   0  0  0  0  0  0  0  0  0  0  0  0
   31.3687   31.8378   37.0976 N   0  0  0  0  0  0  0  0  0  0  0  0
   32.1650   33.0750   37.2594 C   0  0  0  0  0  0  0  0  0  0  0  0
   31.7061   33.8285   38.5112 C   0  0  0  0  0  0  0  0  0  0  0  0
   32.4741   35.1126   38.6742 C   0  0  0  0  0  0  0  0  0  0  0  0
   33.7363   35.1129   39.2906 C   0  0  0  0  0  0  0  0  0  0  0  0
   34.4650   36.3008   39.4024 C   0  0  0  0  0  0  0  0  0  0  0  0
   33.9428   37.4936   38.8955 C   0  0  0  0  0  0  0  0  0  0  0  0
   32.6933   37.5001   38.2666 C   0  0  0  0  0  0  0  0  0  0  0  0
   32.0456   38.9961   37.6187 Cl  0  0  0  0  0  0  0  0  0  0  0  0
   31.9607   36.3127   38.1553 C   0  0  0  0  0  0  0  0  0  0  0  0
   30.1792   32.0868   36.2518 C   0  0  0  0  0  0  0  0  0  0  0  0
   29.3079   30.8315   36.1767 C   0  0  0  0  0  0  0  0  0  0  0  0
  1  2  1  0
  2  3  2  0
  2  4  1  0
  4  5  2  0
  5  6  1  0
  6  7  2  0
  7  8  1  0
  8  9  2  0
  9 10  1  0
 10 11  2  0
 11 12  1  0
 12 13  2  0
 13 14  1  0
  8 15  1  0
 15 16  1  0
 16 17  1  0
 17 18  1  0
 18 19  1  0
 19 20  1  0
 20 21  1  0
 21 22  2  0
 22 23  1  0
 23 24  2  0
 24 25  1  0
 25 26  1  0
 25 27  2  0
 18 28  1  0
 28 29  1  0
 13  4  1  0
 29 15  1  0
 12  7  1  0
 27 21  1  0
M  END
>  <AAScore>  (1) 
-8.048515370594334

>  <RootName>  (1) 
./4ZLY/04_DeltaGEst/trajectory_04/rank_01/lead_0111

$$$$
