confid_11
     RDKit          3D

 27 30  0  0  0  0  0  0  0  0999 V2000
   24.2000   26.2400   35.6900 N   0  0  0  0  0  0  0  0  0  0  0  0
   24.8500   26.2800   34.4800 C   0  0  0  0  0  0  0  0  0  0  0  0
   24.3100   25.7400   33.5400 O   0  0  0  0  0  0  0  0  0  0  0  0
   26.1800   26.9700   34.4700 C   0  0  0  0  0  0  0  0  0  0  0  0
   26.6500   27.6000   35.5500 N   0  0  0  0  0  0  0  0  0  0  0  0
   27.7900   28.2700   35.6200 N   0  0  0  0  0  0  0  0  0  0  0  0
   28.5400   28.3000   34.5100 C   0  0  0  0  0  0  0  0  0  0  0  0
   29.7700   28.9400   34.5600 C   0  0  0  0  0  0  0  0  0  0  0  0
   30.7000   28.8900   33.5000 C   0  0  0  0  0  0  0  0  0  0  0  0
   30.3700   28.1400   32.3700 C   0  0  0  0  0  0  0  0  0  0  0  0
   29.1200   27.5200   32.2800 C   0  0  0  0  0  0  0  0  0  0  0  0
   28.2100   27.6100   33.3300 C   0  0  0  0  0  0  0  0  0  0  0  0
   26.9700   26.9700   33.3100 C   0  0  0  0  0  0  0  0  0  0  0  0
   26.5300   26.2400   32.2200 N   0  0  0  0  0  0  0  0  0  0  0  0
   22.7735   26.1307   35.8456 C   0  0  0  0  0  0  0  0  0  0  0  0
   22.2743   25.5619   36.9772 N   0  0  0  0  0  0  0  0  0  0  0  0
   20.9371   25.4383   37.1969 C   0  0  0  0  0  0  0  0  0  0  0  0
   20.4351   24.8407   38.4689 C   0  0  0  0  0  0  0  0  0  0  0  0
   19.1947   23.9859   38.1992 C   0  0  0  0  0  0  0  0  0  0  0  0
   18.1813   24.7083   37.4042 N   0  0  0  0  0  0  0  0  0  0  0  0
   18.5405   25.8377   36.5222 C   0  0  0  0  0  0  0  0  0  0  0  0
   20.0218   25.9225   36.2561 C   0  0  0  0  0  0  0  0  0  0  0  0
   20.5082   26.5511   35.1035 C   0  0  0  0  0  0  0  0  0  0  0  0
   21.8839   26.6565   34.8924 C   0  0  0  0  0  0  0  0  0  0  0  0
   16.7992   24.2867   37.4438 C   0  0  0  0  0  0  0  0  0  0  0  0
   15.9050   25.0129   36.9289 O   0  0  0  0  0  0  0  0  0  0  0  0
   16.3834   23.0072   38.1069 C   0  0  0  0  0  0  0  0  0  0  0  0
  1  2  1  0
  2  3  2  0
  2  4  1  0
  4  5  2  0
  5  6  1  0
  6  7  2  0
  7  8  1  0
  8  9  2  0
  9 10  1  0
 10 11  2  0
 11 12  1  0
 12 13  2  0
 13 14  1  0
  1 15  1  0
 15 16  2  0
 16 17  1  0
 17 18  1  0
 18 19  1  0
 19 20  1  0
 20 21  1  0
 21 22  1  0
 22 23  1  0
 23 24  2  0
 20 25  1  0
 25 26  2  0
 25 27  1  0
 13  4  1  0
 24 15  1  0
 12  7  1  0
 22 17  2  0
M  END
>  <AAScore>  (1) 
97.44021432014156

>  <RootName>  (1) 
./4ZLY/04_DeltaGEst/trajectory_04/rank_00/lead_0342

$$$$
