confid_2
     RDKit          3D

 27 30  0  0  0  0  0  0  0  0999 V2000
   24.6900   26.1200   35.5300 N   0  0  0  0  0  0  0  0  0  0  0  0
   25.6600   25.6700   34.6600 C   0  0  0  0  0  0  0  0  0  0  0  0
   25.2400   25.0100   33.7200 O   0  0  0  0  0  0  0  0  0  0  0  0
   27.0300   26.2200   34.8800 C   0  0  0  0  0  0  0  0  0  0  0  0
   27.3500   26.7300   36.0700 N   0  0  0  0  0  0  0  0  0  0  0  0
   28.5700   27.1800   36.3300 N   0  0  0  0  0  0  0  0  0  0  0  0
   29.5300   27.1100   35.3900 C   0  0  0  0  0  0  0  0  0  0  0  0
   30.8300   27.5700   35.6500 C   0  0  0  0  0  0  0  0  0  0  0  0
   31.8500   27.5400   34.6900 C   0  0  0  0  0  0  0  0  0  0  0  0
   31.5100   27.1200   33.4000 C   0  0  0  0  0  0  0  0  0  0  0  0
   30.2200   26.6300   33.1100 C   0  0  0  0  0  0  0  0  0  0  0  0
   29.2400   26.6600   34.1000 C   0  0  0  0  0  0  0  0  0  0  0  0
   27.9300   26.2600   33.8100 C   0  0  0  0  0  0  0  0  0  0  0  0
   27.5200   25.7100   32.6100 N   0  0  0  0  0  0  0  0  0  0  0  0
   31.1492   28.0647   36.9625 N   0  0  0  0  0  0  0  0  0  0  0  0
   31.6188   29.4449   37.1233 C   0  0  0  0  0  0  0  0  0  0  0  0
   31.6345   29.8610   38.6027 C   0  0  0  0  0  0  0  0  0  0  0  0
   30.3954   29.3354   39.3881 C   0  0  0  0  0  0  0  0  0  0  0  0
   30.5861   29.7263   40.8965 C   0  0  0  0  0  0  0  0  0  0  0  0
   29.3986   29.6078   41.6578 O   0  0  0  0  0  0  0  0  0  0  0  0
   28.5232   30.7391   41.6586 C   0  0  0  0  0  0  0  0  0  0  0  0
   29.0018   32.1100   41.0962 C   0  0  0  0  0  0  0  0  0  0  0  0
   29.6812   32.0673   39.8537 O   0  0  0  0  0  0  0  0  0  0  0  0
   28.9132   31.4695   38.8326 C   0  0  0  0  0  0  0  0  0  0  0  0
   29.0732   29.9330   38.7881 C   0  0  0  0  0  0  0  0  0  0  0  0
   30.3142   27.7652   39.2734 C   0  0  0  0  0  0  0  0  0  0  0  0
   31.1339   27.1638   38.1179 C   0  0  0  0  0  0  0  0  0  0  0  0
  1  2  1  0
  2  3  2  0
  2  4  1  0
  4  5  2  0
  5  6  1  0
  6  7  2  0
  7  8  1  0
  8  9  2  0
  9 10  1  0
 10 11  2  0
 11 12  1  0
 12 13  2  0
 13 14  1  0
  8 15  1  0
 15 16  1  0
 16 17  1  0
 17 18  1  0
 18 19  1  0
 19 20  1  0
 20 21  1  0
 21 22  1  0
 22 23  1  0
 23 24  1  0
 24 25  1  0
 18 26  1  0
 26 27  1  0
 13  4  1  0
 27 15  1  0
 12  7  1  0
 25 18  1  0
M  END
>  <AAScore>  (1) 
-2.238471399701331

>  <RootName>  (1) 
./4ZLY/04_DeltaGEst/trajectory_02/rank_01/lead_0184

$$$$
