confid_12
     RDKit          3D

 27 30  0  0  0  0  0  0  0  0999 V2000
   24.6900   26.1200   35.5300 N   0  0  0  0  0  0  0  0  0  0  0  0
   25.6600   25.6700   34.6600 C   0  0  0  0  0  0  0  0  0  0  0  0
   25.2400   25.0100   33.7200 O   0  0  0  0  0  0  0  0  0  0  0  0
   27.0300   26.2200   34.8800 C   0  0  0  0  0  0  0  0  0  0  0  0
   27.3500   26.7300   36.0700 N   0  0  0  0  0  0  0  0  0  0  0  0
   28.5700   27.1800   36.3300 N   0  0  0  0  0  0  0  0  0  0  0  0
   29.5300   27.1100   35.3900 C   0  0  0  0  0  0  0  0  0  0  0  0
   30.8300   27.5700   35.6500 C   0  0  0  0  0  0  0  0  0  0  0  0
   31.8500   27.5400   34.6900 C   0  0  0  0  0  0  0  0  0  0  0  0
   31.5100   27.1200   33.4000 C   0  0  0  0  0  0  0  0  0  0  0  0
   30.2200   26.6300   33.1100 C   0  0  0  0  0  0  0  0  0  0  0  0
   29.2400   26.6600   34.1000 C   0  0  0  0  0  0  0  0  0  0  0  0
   27.9300   26.2600   33.8100 C   0  0  0  0  0  0  0  0  0  0  0  0
   27.5200   25.7100   32.6100 N   0  0  0  0  0  0  0  0  0  0  0  0
   31.1464   28.0710   36.9608 N   0  0  0  0  0  0  0  0  0  0  0  0
   31.6407   29.4421   37.1168 C   0  0  0  0  0  0  0  0  0  0  0  0
   31.5618   29.8795   38.5872 C   0  0  0  0  0  0  0  0  0  0  0  0
   30.3765   29.3111   39.2688 N   0  0  0  0  0  0  0  0  0  0  0  0
   29.0818   29.7785   38.7155 C   0  0  0  0  0  0  0  0  0  0  0  0
   28.8577   31.2763   38.9647 C   0  0  0  0  0  0  0  0  0  0  0  0
   27.4497   31.6606   38.6136 C   0  0  0  0  0  0  0  0  0  0  0  0
   27.0361   31.9404   37.3016 C   0  0  0  0  0  0  0  0  0  0  0  0
   25.6808   32.2179   37.1950 C   0  0  0  0  0  0  0  0  0  0  0  0
   25.0024   32.0990   38.7281 S   0  0  0  0  0  0  0  0  0  0  0  0
   26.4159   31.6987   39.5435 C   0  0  0  0  0  0  0  0  0  0  0  0
   30.4482   27.8280   39.3344 C   0  0  0  0  0  0  0  0  0  0  0  0
   31.1433   27.1728   38.1189 C   0  0  0  0  0  0  0  0  0  0  0  0
  1  2  1  0
  2  3  2  0
  2  4  1  0
  4  5  2  0
  5  6  1  0
  6  7  2  0
  7  8  1  0
  8  9  2  0
  9 10  1  0
 10 11  2  0
 11 12  1  0
 12 13  2  0
 13 14  1  0
  8 15  1  0
 15 16  1  0
 16 17  1  0
 17 18  1  0
 18 19  1  0
 19 20  1  0
 20 21  1  0
 21 22  1  0
 22 23  2  0
 23 24  1  0
 24 25  1  0
 18 26  1  0
 26 27  1  0
 13  4  1  0
 27 15  1  0
 12  7  1  0
 25 21  2  0
M  END
>  <AAScore>  (1) 
13.361356945125022

>  <RootName>  (1) 
./4ZLY/04_DeltaGEst/trajectory_02/rank_01/lead_0381

$$$$
