confid_18
     RDKit          3D

 28 31  0  0  0  0  0  0  0  0999 V2000
   24.6900   26.1200   35.5300 N   0  0  0  0  0  0  0  0  0  0  0  0
   25.6600   25.6700   34.6600 C   0  0  0  0  0  0  0  0  0  0  0  0
   25.2400   25.0100   33.7200 O   0  0  0  0  0  0  0  0  0  0  0  0
   27.0300   26.2200   34.8800 C   0  0  0  0  0  0  0  0  0  0  0  0
   27.3500   26.7300   36.0700 N   0  0  0  0  0  0  0  0  0  0  0  0
   28.5700   27.1800   36.3300 N   0  0  0  0  0  0  0  0  0  0  0  0
   29.5300   27.1100   35.3900 C   0  0  0  0  0  0  0  0  0  0  0  0
   30.8300   27.5700   35.6500 C   0  0  0  0  0  0  0  0  0  0  0  0
   31.8500   27.5400   34.6900 C   0  0  0  0  0  0  0  0  0  0  0  0
   31.5100   27.1200   33.4000 C   0  0  0  0  0  0  0  0  0  0  0  0
   30.2200   26.6300   33.1100 C   0  0  0  0  0  0  0  0  0  0  0  0
   29.2400   26.6600   34.1000 C   0  0  0  0  0  0  0  0  0  0  0  0
   27.9300   26.2600   33.8100 C   0  0  0  0  0  0  0  0  0  0  0  0
   27.5200   25.7100   32.6100 N   0  0  0  0  0  0  0  0  0  0  0  0
   23.2934   26.2505   35.2064 C   0  0  0  0  0  0  0  0  0  0  0  0
   22.3612   26.0340   36.1854 N   0  0  0  0  0  0  0  0  0  0  0  0
   21.0225   26.1477   35.9502 C   0  0  0  0  0  0  0  0  0  0  0  0
   20.5955   26.5146   34.6763 C   0  0  0  0  0  0  0  0  0  0  0  0
   19.2159   26.6545   34.1687 C   0  0  0  0  0  0  0  0  0  0  0  0
   19.3570   27.2058   32.7980 N   0  0  0  0  0  0  0  0  0  0  0  0
   18.4852   26.5338   31.8151 C   0  0  0  0  0  0  0  0  0  0  0  0
   17.0175   26.8831   32.0545 C   0  0  0  0  0  0  0  0  0  0  0  0
   20.7906   27.0926   32.4267 C   0  0  2  0  0  0  0  0  0  0  0  0
   21.4959   26.7613   33.6890 C   0  0  0  0  0  0  0  0  0  0  0  0
   22.8677   26.6372   33.9161 C   0  0  0  0  0  0  0  0  0  0  0  0
   21.2758   28.4016   31.8541 C   0  0  0  0  0  0  0  0  0  0  0  0
   21.1883   29.4235   32.5189 O   0  0  0  0  0  0  0  0  0  0  0  0
   21.8606   28.4772   30.4746 C   0  0  0  0  0  0  0  0  0  0  0  0
  1  2  1  0
  2  3  2  0
  2  4  1  0
  4  5  2  0
  5  6  1  0
  6  7  2  0
  7  8  1  0
  8  9  2  0
  9 10  1  0
 10 11  2  0
 11 12  1  0
 12 13  2  0
 13 14  1  0
  1 15  1  0
 15 16  2  0
 16 17  1  0
 17 18  2  0
 18 19  1  0
 19 20  1  0
 20 21  1  0
 21 22  1  0
 20 23  1  0
 23 24  1  0
 24 25  2  0
 23 26  1  1
 26 27  2  0
 26 28  1  0
 13  4  1  0
 25 15  1  0
 12  7  1  0
 24 18  1  0
M  END
>  <AAScore>  (1) 
648.9883347861849

>  <RootName>  (1) 
./4ZLY/04_DeltaGEst/trajectory_02/rank_00/lead_0368

$$$$
