confid_2
     RDKit          3D

 29 32  0  0  0  0  0  0  0  0999 V2000
   24.5500   26.3900   36.2500 N   0  0  0  0  0  0  0  0  0  0  0  0
   25.6000   26.1300   35.4000 C   0  0  0  0  0  0  0  0  0  0  0  0
   25.4300   25.4300   34.4200 O   0  0  0  0  0  0  0  0  0  0  0  0
   26.9800   26.6300   35.7100 C   0  0  0  0  0  0  0  0  0  0  0  0
   27.3200   26.8200   36.9800 N   0  0  0  0  0  0  0  0  0  0  0  0
   28.4700   27.4000   37.3100 N   0  0  0  0  0  0  0  0  0  0  0  0
   29.4000   27.6300   36.3700 C   0  0  0  0  0  0  0  0  0  0  0  0
   30.6600   28.0500   36.8000 C   0  0  0  0  0  0  0  0  0  0  0  0
   31.5700   28.3600   35.7800 C   0  0  0  0  0  0  0  0  0  0  0  0
   31.3700   28.1000   34.4300 C   0  0  0  0  0  0  0  0  0  0  0  0
   30.1200   27.5900   34.0500 C   0  0  0  0  0  0  0  0  0  0  0  0
   29.1500   27.3400   35.0300 C   0  0  0  0  0  0  0  0  0  0  0  0
   27.8800   26.8900   34.6600 C   0  0  0  0  0  0  0  0  0  0  0  0
   27.4800   26.6100   33.3700 N   0  0  0  0  0  0  0  0  0  0  0  0
   23.2060   25.8190   36.0648 C   0  0  0  0  0  0  0  0  0  0  0  0
   22.1502   26.6181   36.8746 C   0  0  0  0  0  0  0  0  0  0  0  0
   21.6504   25.9046   38.1465 C   0  0  0  0  0  0  0  0  0  0  0  0
   22.7088   25.0995   38.7824 N   0  0  0  0  0  0  0  0  0  0  0  0
   22.7722   25.0251   40.2281 C   0  0  0  0  0  0  0  0  0  0  0  0
   21.8528   25.5486   40.9181 O   0  0  0  0  0  0  0  0  0  0  0  0
   23.8725   24.2686   40.9517 C   0  0  1  0  0  0  0  0  0  0  0  0
   24.2948   25.0028   42.2397 C   0  0  0  0  0  0  0  0  0  0  0  0
   25.4747   24.2893   42.9209 C   0  0  0  0  0  0  0  0  0  0  0  0
   25.3173   22.7446   42.9787 C   0  0  2  0  0  0  0  0  0  0  0  0
   26.2858   22.1009   42.1880 O   0  0  0  0  0  0  0  0  0  0  0  0
   23.9017   22.2676   42.6009 C   0  0  0  0  0  0  0  0  0  0  0  0
   23.4319   22.8074   41.2358 C   0  0  0  0  0  0  0  0  0  0  0  0
   23.5125   24.1801   37.9546 C   0  0  0  0  0  0  0  0  0  0  0  0
   23.2026   24.3337   36.4610 C   0  0  0  0  0  0  0  0  0  0  0  0
  1  2  1  0
  2  3  2  0
  2  4  1  0
  4  5  2  0
  5  6  1  0
  6  7  2  0
  7  8  1  0
  8  9  2  0
  9 10  1  0
 10 11  2  0
 11 12  1  0
 12 13  2  0
 13 14  1  0
  1 15  1  0
 15 16  1  0
 16 17  1  0
 17 18  1  0
 18 19  1  0
 19 20  2  0
 21 19  1  1
 21 22  1  0
 22 23  1  0
 23 24  1  0
 24 25  1  6
 24 26  1  0
 26 27  1  0
 18 28  1  0
 28 29  1  0
 13  4  1  0
 29 15  1  0
 12  7  1  0
 27 21  1  0
M  END
>  <AAScore>  (1) 
898.1850204051916

>  <RootName>  (1) 
./4ZLY/04_DeltaGEst/trajectory_01/rank_00/lead_0246

$$$$
