confid_11
     RDKit          3D

 27 30  0  0  0  0  0  0  0  0999 V2000
   24.2000   26.2400   35.6900 N   0  0  0  0  0  0  0  0  0  0  0  0
   24.8500   26.2800   34.4800 C   0  0  0  0  0  0  0  0  0  0  0  0
   24.3100   25.7400   33.5400 O   0  0  0  0  0  0  0  0  0  0  0  0
   26.1800   26.9700   34.4700 C   0  0  0  0  0  0  0  0  0  0  0  0
   26.6500   27.6000   35.5500 N   0  0  0  0  0  0  0  0  0  0  0  0
   27.7900   28.2700   35.6200 N   0  0  0  0  0  0  0  0  0  0  0  0
   28.5400   28.3000   34.5100 C   0  0  0  0  0  0  0  0  0  0  0  0
   29.7700   28.9400   34.5600 C   0  0  0  0  0  0  0  0  0  0  0  0
   30.7000   28.8900   33.5000 C   0  0  0  0  0  0  0  0  0  0  0  0
   30.3700   28.1400   32.3700 C   0  0  0  0  0  0  0  0  0  0  0  0
   29.1200   27.5200   32.2800 C   0  0  0  0  0  0  0  0  0  0  0  0
   28.2100   27.6100   33.3300 C   0  0  0  0  0  0  0  0  0  0  0  0
   26.9700   26.9700   33.3100 C   0  0  0  0  0  0  0  0  0  0  0  0
   26.5300   26.2400   32.2200 N   0  0  0  0  0  0  0  0  0  0  0  0
   22.7882   26.0112   35.8161 C   0  0  0  0  0  0  0  0  0  0  0  0
   22.2964   25.0433   36.6128 N   0  0  0  0  0  0  0  0  0  0  0  0
   20.9662   25.1383   36.4560 C   0  0  0  0  0  0  0  0  0  0  0  0
   20.6688   26.1600   35.5766 C   0  0  0  0  0  0  0  0  0  0  0  0
   19.2488   26.5775   35.2660 C   0  0  0  0  0  0  0  0  0  0  0  0
   18.9181   26.6726   33.8281 N   0  0  0  0  0  0  0  0  0  0  0  0
   19.5819   25.6944   32.9461 C   0  0  0  0  0  0  0  0  0  0  0  0
   18.7514   28.0521   33.3125 C   0  0  2  0  0  0  0  0  0  0  0  0
   17.8083   28.0643   32.1007 C   0  0  0  0  0  0  0  0  0  0  0  0
   20.0781   28.7562   32.9716 C   0  0  0  0  0  0  0  0  0  0  0  0
   21.0181   28.9387   34.1801 C   0  0  0  0  0  0  0  0  0  0  0  0
   22.1109   27.8602   34.2657 C   0  0  0  0  0  0  0  0  0  0  0  0
   21.8316   26.7481   35.1927 N   0  0  0  0  0  0  0  0  0  0  0  0
  1  2  1  0
  2  3  2  0
  2  4  1  0
  4  5  2  0
  5  6  1  0
  6  7  2  0
  7  8  1  0
  8  9  2  0
  9 10  1  0
 10 11  2  0
 11 12  1  0
 12 13  2  0
 13 14  1  0
  1 15  1  0
 15 16  2  0
 16 17  1  0
 17 18  2  0
 18 19  1  0
 19 20  1  0
 20 21  1  0
 20 22  1  0
 22 23  1  6
 22 24  1  0
 24 25  1  0
 25 26  1  0
 26 27  1  0
 13  4  1  0
 27 15  1  0
 12  7  1  0
 27 18  1  0
M  END
>  <AAScore>  (1) 
927.3785098561048

>  <RootName>  (1) 
./4ZLY/04_DeltaGEst/trajectory_04/rank_00/lead_0170

$$$$
