confid_13
     RDKit          3D

 27 30  0  0  0  0  0  0  0  0999 V2000
   24.5500   26.3900   36.2500 N   0  0  0  0  0  0  0  0  0  0  0  0
   25.6000   26.1300   35.4000 C   0  0  0  0  0  0  0  0  0  0  0  0
   25.4300   25.4300   34.4200 O   0  0  0  0  0  0  0  0  0  0  0  0
   26.9800   26.6300   35.7100 C   0  0  0  0  0  0  0  0  0  0  0  0
   27.3200   26.8200   36.9800 N   0  0  0  0  0  0  0  0  0  0  0  0
   28.4700   27.4000   37.3100 N   0  0  0  0  0  0  0  0  0  0  0  0
   29.4000   27.6300   36.3700 C   0  0  0  0  0  0  0  0  0  0  0  0
   30.6600   28.0500   36.8000 C   0  0  0  0  0  0  0  0  0  0  0  0
   31.5700   28.3600   35.7800 C   0  0  0  0  0  0  0  0  0  0  0  0
   31.3700   28.1000   34.4300 C   0  0  0  0  0  0  0  0  0  0  0  0
   30.1200   27.5900   34.0500 C   0  0  0  0  0  0  0  0  0  0  0  0
   29.1500   27.3400   35.0300 C   0  0  0  0  0  0  0  0  0  0  0  0
   27.8800   26.8900   34.6600 C   0  0  0  0  0  0  0  0  0  0  0  0
   27.4800   26.6100   33.3700 N   0  0  0  0  0  0  0  0  0  0  0  0
   30.9684   28.3033   38.1811 N   0  0  0  0  0  0  0  0  0  0  0  0
   31.2229   29.6607   38.6515 C   0  0  0  0  0  0  0  0  0  0  0  0
   30.0757   30.0830   39.5656 C   0  0  0  0  0  0  0  0  0  0  0  0
   29.7181   29.0109   40.5746 C   0  0  0  0  0  0  0  0  0  0  0  0
   28.9428   29.3644   41.6903 C   0  0  0  0  0  0  0  0  0  0  0  0
   28.5619   30.6552   41.8805 F   0  0  0  0  0  0  0  0  0  0  0  0
   28.5550   28.3813   42.6066 C   0  0  0  0  0  0  0  0  0  0  0  0
   28.9219   27.0898   42.4051 N   0  0  0  0  0  0  0  0  0  0  0  0
   29.6620   26.6967   41.3341 C   0  0  0  0  0  0  0  0  0  0  0  0
   30.0097   25.2423   41.2044 C   0  0  0  0  0  0  0  0  0  0  0  0
   30.0616   27.6499   40.3687 C   0  0  0  0  0  0  0  0  0  0  0  0
   30.9074   27.2354   39.1799 C   0  0  0  0  0  0  0  0  0  0  0  0
   27.7309   28.7374   43.8046 C   0  0  0  0  0  0  0  0  0  0  0  0
  1  2  1  0
  2  3  2  0
  2  4  1  0
  4  5  2  0
  5  6  1  0
  6  7  2  0
  7  8  1  0
  8  9  2  0
  9 10  1  0
 10 11  2  0
 11 12  1  0
 12 13  2  0
 13 14  1  0
  8 15  1  0
 15 16  1  0
 16 17  1  0
 17 18  1  0
 18 19  2  0
 19 20  1  0
 19 21  1  0
 21 22  2  0
 22 23  1  0
 23 24  1  0
 23 25  2  0
 25 26  1  0
 21 27  1  0
 13  4  1  0
 26 15  1  0
 12  7  1  0
 25 18  1  0
M  END
>  <AAScore>  (1) 
-1.050710713532777

>  <RootName>  (1) 
./4ZLY/04_DeltaGEst/trajectory_01/rank_01/lead_0289

$$$$
