confid_17
     RDKit          3D

 27 31  0  0  0  0  0  0  0  0999 V2000
   24.2000   26.2400   35.6900 N   0  0  0  0  0  0  0  0  0  0  0  0
   24.8500   26.2800   34.4800 C   0  0  0  0  0  0  0  0  0  0  0  0
   24.3100   25.7400   33.5400 O   0  0  0  0  0  0  0  0  0  0  0  0
   26.1800   26.9700   34.4700 C   0  0  0  0  0  0  0  0  0  0  0  0
   26.6500   27.6000   35.5500 N   0  0  0  0  0  0  0  0  0  0  0  0
   27.7900   28.2700   35.6200 N   0  0  0  0  0  0  0  0  0  0  0  0
   28.5400   28.3000   34.5100 C   0  0  0  0  0  0  0  0  0  0  0  0
   29.7700   28.9400   34.5600 C   0  0  0  0  0  0  0  0  0  0  0  0
   30.7000   28.8900   33.5000 C   0  0  0  0  0  0  0  0  0  0  0  0
   30.3700   28.1400   32.3700 C   0  0  0  0  0  0  0  0  0  0  0  0
   29.1200   27.5200   32.2800 C   0  0  0  0  0  0  0  0  0  0  0  0
   28.2100   27.6100   33.3300 C   0  0  0  0  0  0  0  0  0  0  0  0
   26.9700   26.9700   33.3100 C   0  0  0  0  0  0  0  0  0  0  0  0
   26.5300   26.2400   32.2200 N   0  0  0  0  0  0  0  0  0  0  0  0
   23.2068   25.2648   36.0528 C   0  0  0  0  0  0  0  0  0  0  0  0
   22.9767   24.1643   35.2672 N   0  0  0  0  0  0  0  0  0  0  0  0
   22.0509   23.2249   35.6125 C   0  0  0  0  0  0  0  0  0  0  0  0
   21.3406   23.4013   36.7929 C   0  0  0  0  0  0  0  0  0  0  0  0
   20.2847   22.5514   37.4106 C   0  0  0  0  0  0  0  0  0  0  0  0
   19.9128   23.3317   38.7013 C   0  0  0  0  0  0  0  0  0  0  0  0
   20.7833   24.5084   38.7245 N   0  0  0  0  0  0  0  0  0  0  0  0
   21.5875   24.4903   37.5636 C   0  0  0  0  0  0  0  0  0  0  0  0
   22.5073   25.4241   37.2154 N   0  0  0  0  0  0  0  0  0  0  0  0
   20.7666   25.5529   39.7441 C   0  0  0  0  0  0  0  0  0  0  0  0
   22.0822   25.5343   40.5309 C   0  0  0  0  0  0  0  0  0  0  0  0
   21.9917   26.0287   41.9662 C   0  0  0  0  0  0  0  0  0  0  0  0
   22.1342   24.5409   41.6811 C   0  0  0  0  0  0  0  0  0  0  0  0
  1  2  1  0
  2  3  2  0
  2  4  1  0
  4  5  2  0
  5  6  1  0
  6  7  2  0
  7  8  1  0
  8  9  2  0
  9 10  1  0
 10 11  2  0
 11 12  1  0
 12 13  2  0
 13 14  1  0
  1 15  1  0
 15 16  2  0
 16 17  1  0
 17 18  2  0
 18 19  1  0
 19 20  1  0
 20 21  1  0
 21 22  1  0
 22 23  2  0
 21 24  1  0
 24 25  1  0
 25 26  1  0
 26 27  1  0
 13  4  1  0
 23 15  1  0
 27 25  1  0
 12  7  1  0
 22 18  1  0
M  END
>  <AAScore>  (1) 
3388.200693445888

>  <RootName>  (1) 
./4ZLY/04_DeltaGEst/trajectory_04/rank_00/lead_0260

$$$$
