confid_12
     RDKit          3D

 27 30  0  0  0  0  0  0  0  0999 V2000
   24.6900   26.1200   35.5300 N   0  0  0  0  0  0  0  0  0  0  0  0
   25.6600   25.6700   34.6600 C   0  0  0  0  0  0  0  0  0  0  0  0
   25.2400   25.0100   33.7200 O   0  0  0  0  0  0  0  0  0  0  0  0
   27.0300   26.2200   34.8800 C   0  0  0  0  0  0  0  0  0  0  0  0
   27.3500   26.7300   36.0700 N   0  0  0  0  0  0  0  0  0  0  0  0
   28.5700   27.1800   36.3300 N   0  0  0  0  0  0  0  0  0  0  0  0
   29.5300   27.1100   35.3900 C   0  0  0  0  0  0  0  0  0  0  0  0
   30.8300   27.5700   35.6500 C   0  0  0  0  0  0  0  0  0  0  0  0
   31.8500   27.5400   34.6900 C   0  0  0  0  0  0  0  0  0  0  0  0
   31.5100   27.1200   33.4000 C   0  0  0  0  0  0  0  0  0  0  0  0
   30.2200   26.6300   33.1100 C   0  0  0  0  0  0  0  0  0  0  0  0
   29.2400   26.6600   34.1000 C   0  0  0  0  0  0  0  0  0  0  0  0
   27.9300   26.2600   33.8100 C   0  0  0  0  0  0  0  0  0  0  0  0
   27.5200   25.7100   32.6100 N   0  0  0  0  0  0  0  0  0  0  0  0
   31.1906   28.0711   37.0014 C   0  0  0  0  0  0  0  0  0  0  0  0
   32.0567   29.1334   37.2710 C   0  0  0  0  0  0  0  0  0  0  0  0
   32.2530   29.3482   38.6411 C   0  0  0  0  0  0  0  0  0  0  0  0
   33.1890   30.3616   39.2201 C   0  0  0  0  0  0  0  0  0  0  0  0
   32.8372   30.6708   40.6545 C   0  0  0  0  0  0  0  0  0  0  0  0
   33.2661   31.7465   41.1531 O   0  0  0  0  0  0  0  0  0  0  0  0
   32.0478   29.7513   41.4567 N   0  0  0  0  0  0  0  0  0  0  0  0
   31.5735   30.1551   42.7981 C   0  0  0  0  0  0  0  0  0  0  0  0
   31.9061   29.0926   43.8538 C   0  0  0  0  0  0  0  0  0  0  0  0
   30.0730   30.4627   42.7688 C   0  0  0  0  0  0  0  0  0  0  0  0
   31.7068   28.4156   40.9251 C   0  0  0  0  0  0  0  0  0  0  0  0
   31.5641   28.4602   39.4418 C   0  0  0  0  0  0  0  0  0  0  0  0
   30.7129   27.3857   38.4731 S   0  0  0  0  0  0  0  0  0  0  0  0
  1  2  1  0
  2  3  2  0
  2  4  1  0
  4  5  2  0
  5  6  1  0
  6  7  2  0
  7  8  1  0
  8  9  2  0
  9 10  1  0
 10 11  2  0
 11 12  1  0
 12 13  2  0
 13 14  1  0
  8 15  1  0
 15 16  2  0
 16 17  1  0
 17 18  1  0
 18 19  1  0
 19 20  2  0
 19 21  1  0
 21 22  1  0
 22 23  1  0
 22 24  1  0
 21 25  1  0
 25 26  1  0
 26 27  1  0
 13  4  1  0
 27 15  1  0
 12  7  1  0
 26 17  2  0
M  END
>  <AAScore>  (1) 
24.830670167706646

>  <RootName>  (1) 
./4ZLY/04_DeltaGEst/trajectory_02/rank_01/lead_0165

$$$$
