confid_8
     RDKit          3D

 31 35  0  0  0  0  0  0  0  0999 V2000
   24.4800   26.1000   36.1300 N   0  0  0  0  0  0  0  0  0  0  0  0
   25.2500   26.2500   34.9900 C   0  0  0  0  0  0  0  0  0  0  0  0
   24.7400   25.7600   33.9900 O   0  0  0  0  0  0  0  0  0  0  0  0
   26.5900   26.8900   34.9600 C   0  0  0  0  0  0  0  0  0  0  0  0
   27.0600   27.2400   36.1600 N   0  0  0  0  0  0  0  0  0  0  0  0
   28.3000   27.7100   36.2400 N   0  0  0  0  0  0  0  0  0  0  0  0
   29.0500   27.9600   35.1500 C   0  0  0  0  0  0  0  0  0  0  0  0
   30.3400   28.4900   35.2600 C   0  0  0  0  0  0  0  0  0  0  0  0
   31.1100   28.8200   34.1400 C   0  0  0  0  0  0  0  0  0  0  0  0
   30.5200   28.6700   32.8800 C   0  0  0  0  0  0  0  0  0  0  0  0
   29.2900   28.0200   32.7700 C   0  0  0  0  0  0  0  0  0  0  0  0
   28.5200   27.7100   33.8900 C   0  0  0  0  0  0  0  0  0  0  0  0
   27.2700   27.0800   33.7600 C   0  0  0  0  0  0  0  0  0  0  0  0
   26.7500   26.8800   32.4900 N   0  0  0  0  0  0  0  0  0  0  0  0
   23.4145   25.1458   36.3000 C   0  0  0  0  0  0  0  0  0  0  0  0
   23.5050   23.8439   35.7758 C   0  0  0  0  0  0  0  0  0  0  0  0
   22.4646   22.9263   35.9786 C   0  0  0  0  0  0  0  0  0  0  0  0
   22.5323   21.6219   35.4011 N   0  0  0  0  0  0  0  0  0  0  0  0
   21.6730   20.4233   35.3302 C   0  0  0  0  0  0  0  0  0  0  0  0
   22.5519   19.6481   34.3971 C   0  0  0  0  0  0  0  0  0  0  0  0
   23.4230   20.8738   34.4903 C   0  0  0  0  0  0  0  0  0  0  0  0
   21.8780   19.3422   33.1032 N   0  0  0  0  0  0  0  0  0  0  0  0
   21.5809   20.4712   32.1871 C   0  0  0  0  0  0  0  0  0  0  0  0
   22.6289   20.5989   31.0611 C   0  0  0  0  0  0  0  0  0  0  0  0
   23.8774   20.0752   31.4692 O   0  0  0  0  0  0  0  0  0  0  0  0
   23.7937   18.6716   31.6512 C   0  0  0  0  0  0  0  0  0  0  0  0
   22.5149   18.2206   32.3901 C   0  0  0  0  0  0  0  0  0  0  0  0
   21.3412   23.3015   36.7247 C   0  0  0  0  0  0  0  0  0  0  0  0
   21.2544   24.5865   37.2645 C   0  0  0  0  0  0  0  0  0  0  0  0
   22.2884   25.5022   37.0572 C   0  0  0  0  0  0  0  0  0  0  0  0
   20.1677   24.9425   37.9940 F   0  0  0  0  0  0  0  0  0  0  0  0
  1  2  1  0
  2  3  2  0
  2  4  1  0
  4  5  2  0
  5  6  1  0
  6  7  2  0
  7  8  1  0
  8  9  2  0
  9 10  1  0
 10 11  2  0
 11 12  1  0
 12 13  2  0
 13 14  1  0
  1 15  1  0
 15 16  2  0
 16 17  1  0
 17 18  1  0
 18 19  1  0
 19 20  1  0
 20 21  1  0
 20 22  1  0
 22 23  1  0
 23 24  1  0
 24 25  1  0
 25 26  1  0
 26 27  1  0
 17 28  2  0
 28 29  1  0
 29 30  2  0
 29 31  1  0
 13  4  1  0
 30 15  1  0
 12  7  1  0
 21 18  1  0
 27 22  1  0
M  END
>  <AAScore>  (1) 
925.1071906738124

>  <RootName>  (1) 
./4ZLY/04_DeltaGEst/trajectory_00/rank_00/lead_0138

$$$$
