confid_7
     RDKit          3D

 26 29  0  0  0  0  0  0  0  0999 V2000
   24.4800   26.1000   36.1300 N   0  0  0  0  0  0  0  0  0  0  0  0
   25.2500   26.2500   34.9900 C   0  0  0  0  0  0  0  0  0  0  0  0
   24.7400   25.7600   33.9900 O   0  0  0  0  0  0  0  0  0  0  0  0
   26.5900   26.8900   34.9600 C   0  0  0  0  0  0  0  0  0  0  0  0
   27.0600   27.2400   36.1600 N   0  0  0  0  0  0  0  0  0  0  0  0
   28.3000   27.7100   36.2400 N   0  0  0  0  0  0  0  0  0  0  0  0
   29.0500   27.9600   35.1500 C   0  0  0  0  0  0  0  0  0  0  0  0
   30.3400   28.4900   35.2600 C   0  0  0  0  0  0  0  0  0  0  0  0
   31.1100   28.8200   34.1400 C   0  0  0  0  0  0  0  0  0  0  0  0
   30.5200   28.6700   32.8800 C   0  0  0  0  0  0  0  0  0  0  0  0
   29.2900   28.0200   32.7700 C   0  0  0  0  0  0  0  0  0  0  0  0
   28.5200   27.7100   33.8900 C   0  0  0  0  0  0  0  0  0  0  0  0
   27.2700   27.0800   33.7600 C   0  0  0  0  0  0  0  0  0  0  0  0
   26.7500   26.8800   32.4900 N   0  0  0  0  0  0  0  0  0  0  0  0
   23.4850   25.0773   36.3364 C   0  0  0  0  0  0  0  0  0  0  0  0
   23.3946   24.0110   35.4953 N   0  0  0  0  0  0  0  0  0  0  0  0
   22.4816   23.0153   35.6632 C   0  0  0  0  0  0  0  0  0  0  0  0
   22.5068   21.8576   34.7047 C   0  0  0  0  0  0  0  0  0  0  0  0
   21.3847   21.9286   33.6590 C   0  0  0  0  0  0  0  0  0  0  0  0
   19.7327   22.3743   34.3247 S   0  0  0  0  0  0  0  0  0  0  0  0
   19.8036   21.3482   35.8349 C   0  0  0  0  0  0  0  0  0  0  0  0
   20.5034   22.0612   36.9630 C   0  0  0  0  0  0  0  0  0  0  0  0
   20.1562   21.7844   38.1432 O   0  0  0  0  0  0  0  0  0  0  0  0
   21.5721   23.0750   36.7467 C   0  0  0  0  0  0  0  0  0  0  0  0
   21.6774   24.1523   37.6409 C   0  0  0  0  0  0  0  0  0  0  0  0
   22.6295   25.1506   37.4395 C   0  0  0  0  0  0  0  0  0  0  0  0
  1  2  1  0
  2  3  2  0
  2  4  1  0
  4  5  2  0
  5  6  1  0
  6  7  2  0
  7  8  1  0
  8  9  2  0
  9 10  1  0
 10 11  2  0
 11 12  1  0
 12 13  2  0
 13 14  1  0
  1 15  1  0
 15 16  2  0
 16 17  1  0
 17 18  1  0
 18 19  1  0
 19 20  1  0
 20 21  1  0
 21 22  1  0
 22 23  2  0
 22 24  1  0
 24 25  1  0
 25 26  2  0
 13  4  1  0
 26 15  1  0
 12  7  1  0
 24 17  2  0
M  END
>  <AAScore>  (1) 
222.07032504959997

>  <RootName>  (1) 
./4ZLY/04_DeltaGEst/trajectory_00/rank_01/lead_0418

$$$$
