confid_14
     RDKit          3D

 28 32  0  0  0  0  0  0  0  0999 V2000
   24.5500   26.3900   36.2500 N   0  0  0  0  0  0  0  0  0  0  0  0
   25.6000   26.1300   35.4000 C   0  0  0  0  0  0  0  0  0  0  0  0
   25.4300   25.4300   34.4200 O   0  0  0  0  0  0  0  0  0  0  0  0
   26.9800   26.6300   35.7100 C   0  0  0  0  0  0  0  0  0  0  0  0
   27.3200   26.8200   36.9800 N   0  0  0  0  0  0  0  0  0  0  0  0
   28.4700   27.4000   37.3100 N   0  0  0  0  0  0  0  0  0  0  0  0
   29.4000   27.6300   36.3700 C   0  0  0  0  0  0  0  0  0  0  0  0
   30.6600   28.0500   36.8000 C   0  0  0  0  0  0  0  0  0  0  0  0
   31.5700   28.3600   35.7800 C   0  0  0  0  0  0  0  0  0  0  0  0
   31.3700   28.1000   34.4300 C   0  0  0  0  0  0  0  0  0  0  0  0
   30.1200   27.5900   34.0500 C   0  0  0  0  0  0  0  0  0  0  0  0
   29.1500   27.3400   35.0300 C   0  0  0  0  0  0  0  0  0  0  0  0
   27.8800   26.8900   34.6600 C   0  0  0  0  0  0  0  0  0  0  0  0
   27.4800   26.6100   33.3700 N   0  0  0  0  0  0  0  0  0  0  0  0
   31.0166   28.2959   38.2185 C   0  0  0  0  0  0  0  0  0  0  0  0
   30.7310   27.3558   39.2163 C   0  0  0  0  0  0  0  0  0  0  0  0
   31.0980   27.6137   40.5425 C   0  0  0  0  0  0  0  0  0  0  0  0
   30.7084   26.6285   41.6190 C   0  0  0  0  0  0  0  0  0  0  0  0
   31.5161   26.8114   42.8404 N   0  0  0  0  0  0  0  0  0  0  0  0
   31.0390   25.9056   43.8967 C   0  0  0  0  0  0  0  0  0  0  0  0
   31.4300   28.2094   43.2953 C   0  0  0  0  0  0  0  0  0  0  0  0
   32.1464   29.1182   42.2954 C   0  0  0  0  0  0  0  0  0  0  0  0
   31.7367   28.8294   40.8673 C   0  0  0  0  0  0  0  0  0  0  0  0
   32.0589   29.7244   39.8225 C   0  0  0  0  0  0  0  0  0  0  0  0
   31.6766   29.4370   38.5488 N   0  0  0  0  0  0  0  0  0  0  0  0
   32.7637   31.0285   40.0901 C   0  0  0  0  0  0  0  0  0  0  0  0
   33.8127   31.4316   39.0609 C   0  0  0  0  0  0  0  0  0  0  0  0
   34.2454   30.8928   40.4118 C   0  0  0  0  0  0  0  0  0  0  0  0
  1  2  1  0
  2  3  2  0
  2  4  1  0
  4  5  2  0
  5  6  1  0
  6  7  2  0
  7  8  1  0
  8  9  2  0
  9 10  1  0
 10 11  2  0
 11 12  1  0
 12 13  2  0
 13 14  1  0
  8 15  1  0
 15 16  2  0
 16 17  1  0
 17 18  1  0
 18 19  1  0
 19 20  1  0
 19 21  1  0
 21 22  1  0
 22 23  1  0
 23 24  1  0
 24 25  2  0
 24 26  1  0
 26 27  1  0
 27 28  1  0
 13  4  1  0
 25 15  1  0
 28 26  1  0
 12  7  1  0
 23 17  2  0
M  END
>  <AAScore>  (1) 
55.13337360284736

>  <RootName>  (1) 
./4ZLY/04_DeltaGEst/trajectory_01/rank_01/lead_0252

$$$$
