confid_3
     RDKit          3D

 29 33  0  0  0  0  0  0  0  0999 V2000
   25.3300   26.2600   34.7600 N   0  0  0  0  0  0  0  0  0  0  0  0
   26.1200   25.9200   33.6900 C   0  0  0  0  0  0  0  0  0  0  0  0
   25.6300   25.1100   32.9400 O   0  0  0  0  0  0  0  0  0  0  0  0
   27.5200   26.3800   33.4600 C   0  0  0  0  0  0  0  0  0  0  0  0
   28.1600   26.6300   34.6100 N   0  0  0  0  0  0  0  0  0  0  0  0
   29.4800   26.8500   34.5700 N   0  0  0  0  0  0  0  0  0  0  0  0
   30.1900   26.7800   33.4400 C   0  0  0  0  0  0  0  0  0  0  0  0
   31.5600   27.0500   33.5000 C   0  0  0  0  0  0  0  0  0  0  0  0
   32.2700   27.2400   32.3100 C   0  0  0  0  0  0  0  0  0  0  0  0
   31.6100   27.2500   31.0800 C   0  0  0  0  0  0  0  0  0  0  0  0
   30.2700   26.8700   31.0600 C   0  0  0  0  0  0  0  0  0  0  0  0
   29.5100   26.6900   32.2300 C   0  0  0  0  0  0  0  0  0  0  0  0
   28.1400   26.4100   32.2000 C   0  0  0  0  0  0  0  0  0  0  0  0
   27.4300   26.1300   31.0500 N   0  0  0  0  0  0  0  0  0  0  0  0
   26.6070   27.1702   30.4287 C   0  0  0  0  0  0  0  0  0  0  0  0
   26.5625   26.9479   28.9148 C   0  0  0  0  0  0  0  0  0  0  0  0
   26.0269   25.6115   28.5571 N   0  0  0  0  0  0  0  0  0  0  0  0
   26.4277   25.2443   27.1839 C   0  0  0  0  0  0  0  0  0  0  0  0
   25.4625   24.2552   26.6063 C   0  0  0  0  0  0  0  0  0  0  0  0
   24.1439   24.5107   26.2844 C   0  0  0  0  0  0  0  0  0  0  0  0
   23.6214   23.3698   25.8108 N   0  0  0  0  0  0  0  0  0  0  0  0
   24.6050   22.4534   25.8882 C   0  0  0  0  0  0  0  0  0  0  0  0
   25.7643   22.9615   26.3567 N   0  0  0  0  0  0  0  0  0  0  0  0
   24.4363   21.0461   25.4022 C   0  0  0  0  0  0  0  0  0  0  0  0
   22.9444   20.6836   25.3096 C   0  0  0  0  0  0  0  0  0  0  0  0
   22.1364   21.8005   24.6265 C   0  0  0  0  0  0  0  0  0  0  0  0
   22.2354   23.1127   25.4222 C   0  0  0  0  0  0  0  0  0  0  0  0
   26.3335   24.5330   29.5362 C   0  0  0  0  0  0  0  0  0  0  0  0
   27.5695   24.8241   30.3979 C   0  0  0  0  0  0  0  0  0  0  0  0
  1  2  1  0
  2  3  2  0
  2  4  1  0
  4  5  2  0
  5  6  1  0
  6  7  2  0
  7  8  1  0
  8  9  2  0
  9 10  1  0
 10 11  2  0
 11 12  1  0
 12 13  2  0
 13 14  1  0
 14 15  1  0
 15 16  1  0
 16 17  1  0
 17 18  1  0
 18 19  1  0
 19 20  2  0
 20 21  1  0
 21 22  1  0
 22 23  2  0
 22 24  1  0
 24 25  1  0
 25 26  1  0
 26 27  1  0
 17 28  1  0
 28 29  1  0
 13  4  1  0
 29 14  1  0
 12  7  1  0
 23 19  1  0
 27 21  1  0
M  END
>  <AAScore>  (1) 
21.207717946572046

>  <RootName>  (1) 
./4ZLY/04_DeltaGEst/trajectory_03/rank_01/lead_0321

$$$$
