confid_13
     RDKit          3D

 28 31  0  0  0  0  0  0  0  0999 V2000
   24.4800   26.1000   36.1300 N   0  0  0  0  0  0  0  0  0  0  0  0
   25.2500   26.2500   34.9900 C   0  0  0  0  0  0  0  0  0  0  0  0
   24.7400   25.7600   33.9900 O   0  0  0  0  0  0  0  0  0  0  0  0
   26.5900   26.8900   34.9600 C   0  0  0  0  0  0  0  0  0  0  0  0
   27.0600   27.2400   36.1600 N   0  0  0  0  0  0  0  0  0  0  0  0
   28.3000   27.7100   36.2400 N   0  0  0  0  0  0  0  0  0  0  0  0
   29.0500   27.9600   35.1500 C   0  0  0  0  0  0  0  0  0  0  0  0
   30.3400   28.4900   35.2600 C   0  0  0  0  0  0  0  0  0  0  0  0
   31.1100   28.8200   34.1400 C   0  0  0  0  0  0  0  0  0  0  0  0
   30.5200   28.6700   32.8800 C   0  0  0  0  0  0  0  0  0  0  0  0
   29.2900   28.0200   32.7700 C   0  0  0  0  0  0  0  0  0  0  0  0
   28.5200   27.7100   33.8900 C   0  0  0  0  0  0  0  0  0  0  0  0
   27.2700   27.0800   33.7600 C   0  0  0  0  0  0  0  0  0  0  0  0
   26.7500   26.8800   32.4900 N   0  0  0  0  0  0  0  0  0  0  0  0
   23.0441   26.0342   36.1523 C   0  0  0  0  0  0  0  0  0  0  0  0
   22.1812   26.4278   35.1352 C   0  0  0  0  0  0  0  0  0  0  0  0
   20.9326   26.2353   35.6850 C   0  0  0  0  0  0  0  0  0  0  0  0
   19.6085   26.6140   35.1112 C   0  0  0  0  0  0  0  0  0  0  0  0
   18.5392   25.8150   35.7379 N   0  0  0  0  0  0  0  0  0  0  0  0
   18.6702   25.3859   37.1173 C   0  0  0  0  0  0  0  0  0  0  0  0
   17.7066   24.8273   37.7075 O   0  0  0  0  0  0  0  0  0  0  0  0
   19.9592   25.5907   37.8711 C   0  0  0  0  0  0  0  0  0  0  0  0
   21.0648   25.7810   36.9391 N   0  0  0  0  0  0  0  0  0  0  0  0
   22.3459   25.6684   37.2481 N   0  0  0  0  0  0  0  0  0  0  0  0
   17.4017   25.3549   34.9207 C   0  0  0  0  0  0  0  0  0  0  0  0
   16.2358   26.3703   34.8687 C   0  0  0  0  0  0  0  0  0  0  0  0
   16.6187   27.6675   34.1456 C   0  0  0  0  0  0  0  0  0  0  0  0
   15.6580   26.6731   36.2557 C   0  0  0  0  0  0  0  0  0  0  0  0
  1  2  1  0
  2  3  2  0
  2  4  1  0
  4  5  2  0
  5  6  1  0
  6  7  2  0
  7  8  1  0
  8  9  2  0
  9 10  1  0
 10 11  2  0
 11 12  1  0
 12 13  2  0
 13 14  1  0
  1 15  1  0
 15 16  1  0
 16 17  2  0
 17 18  1  0
 18 19  1  0
 19 20  1  0
 20 21  2  0
 20 22  1  0
 22 23  1  0
 23 24  1  0
 19 25  1  0
 25 26  1  0
 26 27  1  0
 26 28  1  0
 13  4  1  0
 24 15  2  0
 12  7  1  0
 23 17  1  0
M  END
>  <AAScore>  (1) 
9150.743094558384

>  <RootName>  (1) 
./4ZLY/04_DeltaGEst/trajectory_00/rank_00/lead_0309

$$$$
