confid_16
     RDKit          3D

 27 30  0  0  0  0  0  0  0  0999 V2000
   24.5500   26.3900   36.2500 N   0  0  0  0  0  0  0  0  0  0  0  0
   25.6000   26.1300   35.4000 C   0  0  0  0  0  0  0  0  0  0  0  0
   25.4300   25.4300   34.4200 O   0  0  0  0  0  0  0  0  0  0  0  0
   26.9800   26.6300   35.7100 C   0  0  0  0  0  0  0  0  0  0  0  0
   27.3200   26.8200   36.9800 N   0  0  0  0  0  0  0  0  0  0  0  0
   28.4700   27.4000   37.3100 N   0  0  0  0  0  0  0  0  0  0  0  0
   29.4000   27.6300   36.3700 C   0  0  0  0  0  0  0  0  0  0  0  0
   30.6600   28.0500   36.8000 C   0  0  0  0  0  0  0  0  0  0  0  0
   31.5700   28.3600   35.7800 C   0  0  0  0  0  0  0  0  0  0  0  0
   31.3700   28.1000   34.4300 C   0  0  0  0  0  0  0  0  0  0  0  0
   30.1200   27.5900   34.0500 C   0  0  0  0  0  0  0  0  0  0  0  0
   29.1500   27.3400   35.0300 C   0  0  0  0  0  0  0  0  0  0  0  0
   27.8800   26.8900   34.6600 C   0  0  0  0  0  0  0  0  0  0  0  0
   27.4800   26.6100   33.3700 N   0  0  0  0  0  0  0  0  0  0  0  0
   31.0017   28.3030   38.2159 C   0  0  0  0  0  0  0  0  0  0  0  0
   32.0333   27.6710   38.8848 C   0  0  0  0  0  0  0  0  0  0  0  0
   32.0092   28.1620   40.1746 C   0  0  0  0  0  0  0  0  0  0  0  0
   32.9138   27.7549   41.2988 C   0  0  0  0  0  0  0  0  0  0  0  0
   32.1071   27.1568   42.4551 C   0  0  0  0  0  0  0  0  0  0  0  0
   31.4256   28.1995   43.2344 N   0  0  0  0  0  0  0  0  0  0  0  0
   30.3575   28.9609   42.6465 C   0  0  0  0  0  0  0  0  0  0  0  0
   29.2054   28.9179   43.1568 O   0  0  0  0  0  0  0  0  0  0  0  0
   30.6124   29.8630   41.4740 C   0  0  0  0  0  0  0  0  0  0  0  0
   30.9703   29.0724   40.2459 C   0  0  0  0  0  0  0  0  0  0  0  0
   30.3686   29.1762   39.0376 N   0  0  0  0  0  0  0  0  0  0  0  0
   29.2829   30.0943   38.6857 C   0  0  0  0  0  0  0  0  0  0  0  0
   31.5955   28.2267   44.6870 C   0  0  0  0  0  0  0  0  0  0  0  0
  1  2  1  0
  2  3  2  0
  2  4  1  0
  4  5  2  0
  5  6  1  0
  6  7  2  0
  7  8  1  0
  8  9  2  0
  9 10  1  0
 10 11  2  0
 11 12  1  0
 12 13  2  0
 13 14  1  0
  8 15  1  0
 15 16  2  0
 16 17  1  0
 17 18  1  0
 18 19  1  0
 19 20  1  0
 20 21  1  0
 21 22  2  0
 21 23  1  0
 23 24  1  0
 24 25  1  0
 25 26  1  0
 20 27  1  0
 13  4  1  0
 25 15  1  0
 12  7  1  0
 24 17  2  0
M  END
>  <AAScore>  (1) 
79.5697999521592

>  <RootName>  (1) 
./4ZLY/04_DeltaGEst/trajectory_01/rank_01/lead_0340

$$$$
