confid_9
     RDKit          3D

 30 34  0  0  0  0  0  0  0  0999 V2000
   25.3300   26.2600   34.7600 N   0  0  0  0  0  0  0  0  0  0  0  0
   26.1200   25.9200   33.6900 C   0  0  0  0  0  0  0  0  0  0  0  0
   25.6300   25.1100   32.9400 O   0  0  0  0  0  0  0  0  0  0  0  0
   27.5200   26.3800   33.4600 C   0  0  0  0  0  0  0  0  0  0  0  0
   28.1600   26.6300   34.6100 N   0  0  0  0  0  0  0  0  0  0  0  0
   29.4800   26.8500   34.5700 N   0  0  0  0  0  0  0  0  0  0  0  0
   30.1900   26.7800   33.4400 C   0  0  0  0  0  0  0  0  0  0  0  0
   31.5600   27.0500   33.5000 C   0  0  0  0  0  0  0  0  0  0  0  0
   32.2700   27.2400   32.3100 C   0  0  0  0  0  0  0  0  0  0  0  0
   31.6100   27.2500   31.0800 C   0  0  0  0  0  0  0  0  0  0  0  0
   30.2700   26.8700   31.0600 C   0  0  0  0  0  0  0  0  0  0  0  0
   29.5100   26.6900   32.2300 C   0  0  0  0  0  0  0  0  0  0  0  0
   28.1400   26.4100   32.2000 C   0  0  0  0  0  0  0  0  0  0  0  0
   27.4300   26.1300   31.0500 N   0  0  0  0  0  0  0  0  0  0  0  0
   27.5667   24.8092   30.4210 C   0  0  0  0  0  0  0  0  0  0  0  0
   26.5580   24.6194   29.2820 C   0  0  0  0  0  0  0  0  0  0  0  0
   26.5378   25.7981   28.4003 N   0  0  0  0  0  0  0  0  0  0  0  0
   26.3576   25.6611   26.9754 C   0  0  0  0  0  0  0  0  0  0  0  0
   25.6419   24.5821   26.4271 C   0  0  0  0  0  0  0  0  0  0  0  0
   25.4758   24.4937   25.0436 C   0  0  0  0  0  0  0  0  0  0  0  0
   24.7970   23.4428   24.5178 F   0  0  0  0  0  0  0  0  0  0  0  0
   26.0044   25.4893   24.2117 C   0  0  0  0  0  0  0  0  0  0  0  0
   26.7270   26.5445   24.7900 C   0  0  0  0  0  0  0  0  0  0  0  0
   26.8665   26.6108   26.1411 N   0  0  0  0  0  0  0  0  0  0  0  0
   27.2843   27.6415   23.9312 C   0  0  0  0  0  0  0  0  0  0  0  0
   27.3150   27.2150   22.4591 C   0  0  0  0  0  0  0  0  0  0  0  0
   26.0691   26.6580   22.0846 O   0  0  0  0  0  0  0  0  0  0  0  0
   25.8946   25.3967   22.7076 C   0  0  0  0  0  0  0  0  0  0  0  0
   26.6320   27.1525   28.9684 C   0  0  0  0  0  0  0  0  0  0  0  0
   26.5199   27.1356   30.4944 C   0  0  0  0  0  0  0  0  0  0  0  0
  1  2  1  0
  2  3  2  0
  2  4  1  0
  4  5  2  0
  5  6  1  0
  6  7  2  0
  7  8  1  0
  8  9  2  0
  9 10  1  0
 10 11  2  0
 11 12  1  0
 12 13  2  0
 13 14  1  0
 14 15  1  0
 15 16  1  0
 16 17  1  0
 17 18  1  0
 18 19  2  0
 19 20  1  0
 20 21  1  0
 20 22  2  0
 22 23  1  0
 23 24  2  0
 23 25  1  0
 25 26  1  0
 26 27  1  0
 27 28  1  0
 17 29  1  0
 29 30  1  0
 13  4  1  0
 30 14  1  0
 12  7  1  0
 24 18  1  0
 28 22  1  0
M  END
>  <AAScore>  (1) 
2.0663608006497376

>  <RootName>  (1) 
./4ZLY/04_DeltaGEst/trajectory_03/rank_01/lead_0250

$$$$
