confid_0
     RDKit          3D

 31 34  0  0  0  0  0  0  0  0999 V2000
   24.5500   26.3900   36.2500 N   0  0  0  0  0  0  0  0  0  0  0  0
   25.6000   26.1300   35.4000 C   0  0  0  0  0  0  0  0  0  0  0  0
   25.4300   25.4300   34.4200 O   0  0  0  0  0  0  0  0  0  0  0  0
   26.9800   26.6300   35.7100 C   0  0  0  0  0  0  0  0  0  0  0  0
   27.3200   26.8200   36.9800 N   0  0  0  0  0  0  0  0  0  0  0  0
   28.4700   27.4000   37.3100 N   0  0  0  0  0  0  0  0  0  0  0  0
   29.4000   27.6300   36.3700 C   0  0  0  0  0  0  0  0  0  0  0  0
   30.6600   28.0500   36.8000 C   0  0  0  0  0  0  0  0  0  0  0  0
   31.5700   28.3600   35.7800 C   0  0  0  0  0  0  0  0  0  0  0  0
   31.3700   28.1000   34.4300 C   0  0  0  0  0  0  0  0  0  0  0  0
   30.1200   27.5900   34.0500 C   0  0  0  0  0  0  0  0  0  0  0  0
   29.1500   27.3400   35.0300 C   0  0  0  0  0  0  0  0  0  0  0  0
   27.8800   26.8900   34.6600 C   0  0  0  0  0  0  0  0  0  0  0  0
   27.4800   26.6100   33.3700 N   0  0  0  0  0  0  0  0  0  0  0  0
   30.9547   28.3185   38.1850 N   0  0  0  0  0  0  0  0  0  0  0  0
   31.8141   27.3436   38.8676 C   0  0  0  0  0  0  0  0  0  0  0  0
   31.4833   27.2726   40.3552 C   0  0  0  0  0  0  0  0  0  0  0  0
   31.3866   28.6745   40.9698 C   0  0  0  0  0  0  0  0  0  0  0  0
   30.4411   29.5473   40.2318 N   0  0  0  0  0  0  0  0  0  0  0  0
   30.7944   29.6757   38.7769 C   0  0  2  0  0  0  0  0  0  0  0  0
   29.7141   30.5147   38.0065 C   0  0  0  0  0  0  0  0  0  0  0  0
   29.5924   31.9482   38.5536 C   0  0  0  0  0  0  0  0  0  0  0  0
   30.9420   32.6870   38.4658 C   0  0  2  0  0  0  0  0  0  0  0  0
   32.0390   31.8854   39.1857 C   0  0  0  0  0  0  0  0  0  0  0  0
   32.1330   30.4635   38.6142 C   0  0  0  0  0  0  0  0  0  0  0  0
   30.8481   34.0826   39.0529 C   0  0  0  0  0  0  0  0  0  0  0  0
   30.2008   34.2443   40.1248 O   0  0  0  0  0  0  0  0  0  0  0  0
   31.5294   35.2148   38.4632 N   0  0  0  0  0  0  0  0  0  0  0  0
   31.4026   36.5280   39.1045 C   0  0  0  0  0  0  0  0  0  0  0  0
   32.3509   35.0712   37.2553 C   0  0  0  0  0  0  0  0  0  0  0  0
   29.0508   29.0935   40.4718 C   0  0  0  0  0  0  0  0  0  0  0  0
  1  2  1  0
  2  3  2  0
  2  4  1  0
  4  5  2  0
  5  6  1  0
  6  7  2  0
  7  8  1  0
  8  9  2  0
  9 10  1  0
 10 11  2  0
 11 12  1  0
 12 13  2  0
 13 14  1  0
  8 15  1  0
 15 16  1  0
 16 17  1  0
 17 18  1  0
 18 19  1  0
 19 20  1  0
 20 21  1  6
 21 22  1  0
 22 23  1  0
 23 24  1  0
 24 25  1  0
 23 26  1  1
 26 27  2  0
 26 28  1  0
 28 29  1  0
 28 30  1  0
 19 31  1  0
 13  4  1  0
 20 15  1  0
 12  7  1  0
 25 20  1  0
M  END
>  <AAScore>  (1) 
2.0611195804193785

>  <RootName>  (1) 
./4ZLY/04_DeltaGEst/trajectory_01/rank_01/lead_0126

$$$$
