confid_1
     RDKit          3D

 28 31  0  0  0  0  0  0  0  0999 V2000
   24.2000   26.2400   35.6900 N   0  0  0  0  0  0  0  0  0  0  0  0
   24.8500   26.2800   34.4800 C   0  0  0  0  0  0  0  0  0  0  0  0
   24.3100   25.7400   33.5400 O   0  0  0  0  0  0  0  0  0  0  0  0
   26.1800   26.9700   34.4700 C   0  0  0  0  0  0  0  0  0  0  0  0
   26.6500   27.6000   35.5500 N   0  0  0  0  0  0  0  0  0  0  0  0
   27.7900   28.2700   35.6200 N   0  0  0  0  0  0  0  0  0  0  0  0
   28.5400   28.3000   34.5100 C   0  0  0  0  0  0  0  0  0  0  0  0
   29.7700   28.9400   34.5600 C   0  0  0  0  0  0  0  0  0  0  0  0
   30.7000   28.8900   33.5000 C   0  0  0  0  0  0  0  0  0  0  0  0
   30.3700   28.1400   32.3700 C   0  0  0  0  0  0  0  0  0  0  0  0
   29.1200   27.5200   32.2800 C   0  0  0  0  0  0  0  0  0  0  0  0
   28.2100   27.6100   33.3300 C   0  0  0  0  0  0  0  0  0  0  0  0
   26.9700   26.9700   33.3100 C   0  0  0  0  0  0  0  0  0  0  0  0
   26.5300   26.2400   32.2200 N   0  0  0  0  0  0  0  0  0  0  0  0
   30.1514   29.6593   35.7470 N   0  0  0  0  0  0  0  0  0  0  0  0
   30.3850   29.0379   37.0399 C   0  0  0  0  0  0  0  0  0  0  0  0
   31.3287   29.9899   37.7942 C   0  0  0  0  0  0  0  0  0  0  0  0
   31.2427   31.3693   37.0838 C   0  0  0  0  0  0  0  0  0  0  0  0
   30.6622   30.9805   35.7608 C   0  0  0  0  0  0  0  0  0  0  0  0
   30.6037   31.7423   34.7573 O   0  0  0  0  0  0  0  0  0  0  0  0
   30.2727   32.3088   37.8389 C   0  0  0  0  0  0  0  0  0  0  0  0
   30.1600   33.7025   37.1798 C   0  0  0  0  0  0  0  0  0  0  0  0
   31.3219   34.0244   36.3193 N   0  0  0  0  0  0  0  0  0  0  0  0
   32.5914   33.5654   36.9166 C   0  0  0  0  0  0  0  0  0  0  0  0
   32.6462   32.0265   36.9402 C   0  0  0  0  0  0  0  0  0  0  0  0
   31.3135   35.4430   35.8746 C   0  0  0  0  0  0  0  0  0  0  0  0
   32.0017   35.5728   34.5113 C   0  0  0  0  0  0  0  0  0  0  0  0
   31.9293   36.4202   36.8953 C   0  0  0  0  0  0  0  0  0  0  0  0
  1  2  1  0
  2  3  2  0
  2  4  1  0
  4  5  2  0
  5  6  1  0
  6  7  2  0
  7  8  1  0
  8  9  2  0
  9 10  1  0
 10 11  2  0
 11 12  1  0
 12 13  2  0
 13 14  1  0
  8 15  1  0
 15 16  1  0
 16 17  1  0
 17 18  1  0
 18 19  1  0
 19 20  2  0
 18 21  1  0
 21 22  1  0
 22 23  1  0
 23 24  1  0
 24 25  1  0
 23 26  1  0
 26 27  1  0
 26 28  1  0
 13  4  1  0
 19 15  1  0
 12  7  1  0
 25 18  1  0
M  END
>  <AAScore>  (1) 
-8.152667824839295

>  <RootName>  (1) 
./4ZLY/04_DeltaGEst/trajectory_04/rank_01/lead_0487

$$$$
