confid_14
     RDKit          3D

 27 30  0  0  0  0  0  0  0  0999 V2000
   24.4800   26.1000   36.1300 N   0  0  0  0  0  0  0  0  0  0  0  0
   25.2500   26.2500   34.9900 C   0  0  0  0  0  0  0  0  0  0  0  0
   24.7400   25.7600   33.9900 O   0  0  0  0  0  0  0  0  0  0  0  0
   26.5900   26.8900   34.9600 C   0  0  0  0  0  0  0  0  0  0  0  0
   27.0600   27.2400   36.1600 N   0  0  0  0  0  0  0  0  0  0  0  0
   28.3000   27.7100   36.2400 N   0  0  0  0  0  0  0  0  0  0  0  0
   29.0500   27.9600   35.1500 C   0  0  0  0  0  0  0  0  0  0  0  0
   30.3400   28.4900   35.2600 C   0  0  0  0  0  0  0  0  0  0  0  0
   31.1100   28.8200   34.1400 C   0  0  0  0  0  0  0  0  0  0  0  0
   30.5200   28.6700   32.8800 C   0  0  0  0  0  0  0  0  0  0  0  0
   29.2900   28.0200   32.7700 C   0  0  0  0  0  0  0  0  0  0  0  0
   28.5200   27.7100   33.8900 C   0  0  0  0  0  0  0  0  0  0  0  0
   27.2700   27.0800   33.7600 C   0  0  0  0  0  0  0  0  0  0  0  0
   26.7500   26.8800   32.4900 N   0  0  0  0  0  0  0  0  0  0  0  0
   23.4716   25.0940   36.3372 C   0  0  0  0  0  0  0  0  0  0  0  0
   23.3241   24.0550   35.4668 N   0  0  0  0  0  0  0  0  0  0  0  0
   22.3762   23.1167   35.7024 C   0  0  0  0  0  0  0  0  0  0  0  0
   22.0812   21.9522   34.8522 C   0  0  0  0  0  0  0  0  0  0  0  0
   20.8239   21.4130   35.4022 N   0  0  0  0  0  0  0  0  0  0  0  0
   20.7081   19.9562   35.2230 C   0  0  0  0  0  0  0  0  0  0  0  0
   20.6675   21.9485   36.7898 C   0  0  0  0  0  0  0  0  0  0  0  0
   19.1925   22.3230   37.0048 C   0  0  0  0  0  0  0  0  0  0  0  0
   21.1463   20.9542   37.8779 C   0  0  0  0  0  0  0  0  0  0  0  0
   21.5643   23.1616   36.7995 C   0  0  0  0  0  0  0  0  0  0  0  0
   21.7152   24.2308   37.7058 C   0  0  0  0  0  0  0  0  0  0  0  0
   22.6682   25.1697   37.4383 N   0  0  0  0  0  0  0  0  0  0  0  0
   20.8315   24.4322   38.8988 C   0  0  0  0  0  0  0  0  0  0  0  0
  1  2  1  0
  2  3  2  0
  2  4  1  0
  4  5  2  0
  5  6  1  0
  6  7  2  0
  7  8  1  0
  8  9  2  0
  9 10  1  0
 10 11  2  0
 11 12  1  0
 12 13  2  0
 13 14  1  0
  1 15  1  0
 15 16  2  0
 16 17  1  0
 17 18  1  0
 18 19  1  0
 19 20  1  0
 19 21  1  0
 21 22  1  0
 21 23  1  0
 21 24  1  0
 24 25  1  0
 25 26  2  0
 25 27  1  0
 13  4  1  0
 26 15  1  0
 12  7  1  0
 24 17  2  0
M  END
>  <AAScore>  (1) 
440.612828691376

>  <RootName>  (1) 
./4ZLY/04_DeltaGEst/trajectory_00/rank_01/lead_0214

$$$$
