confid_5
     RDKit          3D

 28 31  0  0  0  0  0  0  0  0999 V2000
   24.6900   26.1200   35.5300 N   0  0  0  0  0  0  0  0  0  0  0  0
   25.6600   25.6700   34.6600 C   0  0  0  0  0  0  0  0  0  0  0  0
   25.2400   25.0100   33.7200 O   0  0  0  0  0  0  0  0  0  0  0  0
   27.0300   26.2200   34.8800 C   0  0  0  0  0  0  0  0  0  0  0  0
   27.3500   26.7300   36.0700 N   0  0  0  0  0  0  0  0  0  0  0  0
   28.5700   27.1800   36.3300 N   0  0  0  0  0  0  0  0  0  0  0  0
   29.5300   27.1100   35.3900 C   0  0  0  0  0  0  0  0  0  0  0  0
   30.8300   27.5700   35.6500 C   0  0  0  0  0  0  0  0  0  0  0  0
   31.8500   27.5400   34.6900 C   0  0  0  0  0  0  0  0  0  0  0  0
   31.5100   27.1200   33.4000 C   0  0  0  0  0  0  0  0  0  0  0  0
   30.2200   26.6300   33.1100 C   0  0  0  0  0  0  0  0  0  0  0  0
   29.2400   26.6600   34.1000 C   0  0  0  0  0  0  0  0  0  0  0  0
   27.9300   26.2600   33.8100 C   0  0  0  0  0  0  0  0  0  0  0  0
   27.5200   25.7100   32.6100 N   0  0  0  0  0  0  0  0  0  0  0  0
   23.3106   26.3229   35.1760 C   0  0  0  0  0  0  0  0  0  0  0  0
   22.3499   26.1010   36.1088 N   0  0  0  0  0  0  0  0  0  0  0  0
   21.0321   26.2924   35.8468 C   0  0  0  0  0  0  0  0  0  0  0  0
   20.6113   26.7549   34.5898 C   0  0  0  0  0  0  0  0  0  0  0  0
   19.1253   26.8961   34.3291 C   0  0  0  0  0  0  0  0  0  0  0  0
   18.5290   25.6995   33.6792 N   0  0  0  0  0  0  0  0  0  0  0  0
   17.1663   25.9925   33.1802 C   0  0  0  0  0  0  0  0  0  0  0  0
   16.3131   24.7257   33.1155 C   0  0  0  0  0  0  0  0  0  0  0  0
   19.3860   25.0090   32.6771 C   0  0  0  0  0  0  0  0  0  0  0  0
   19.7664   25.8550   31.4422 C   0  0  0  0  0  0  0  0  0  0  0  0
   19.9537   27.2224   31.7505 O   0  0  0  0  0  0  0  0  0  0  0  0
   21.2721   27.4943   32.1882 C   0  0  0  0  0  0  0  0  0  0  0  0
   21.5900   26.9835   33.5854 C   0  0  0  0  0  0  0  0  0  0  0  0
   22.9425   26.7906   33.9060 C   0  0  0  0  0  0  0  0  0  0  0  0
  1  2  1  0
  2  3  2  0
  2  4  1  0
  4  5  2  0
  5  6  1  0
  6  7  2  0
  7  8  1  0
  8  9  2  0
  9 10  1  0
 10 11  2  0
 11 12  1  0
 12 13  2  0
 13 14  1  0
  1 15  1  0
 15 16  2  0
 16 17  1  0
 17 18  2  0
 18 19  1  0
 19 20  1  0
 20 21  1  0
 21 22  1  0
 20 23  1  0
 23 24  1  0
 24 25  1  0
 25 26  1  0
 26 27  1  0
 27 28  2  0
 13  4  1  0
 28 15  1  0
 12  7  1  0
 27 18  1  0
M  END
>  <AAScore>  (1) 
1871.1141613182092

>  <RootName>  (1) 
./4ZLY/04_DeltaGEst/trajectory_02/rank_00/lead_0102

$$$$
