confid_12
     RDKit          3D

 26 29  0  0  0  0  0  0  0  0999 V2000
   24.4800   26.1000   36.1300 N   0  0  0  0  0  0  0  0  0  0  0  0
   25.2500   26.2500   34.9900 C   0  0  0  0  0  0  0  0  0  0  0  0
   24.7400   25.7600   33.9900 O   0  0  0  0  0  0  0  0  0  0  0  0
   26.5900   26.8900   34.9600 C   0  0  0  0  0  0  0  0  0  0  0  0
   27.0600   27.2400   36.1600 N   0  0  0  0  0  0  0  0  0  0  0  0
   28.3000   27.7100   36.2400 N   0  0  0  0  0  0  0  0  0  0  0  0
   29.0500   27.9600   35.1500 C   0  0  0  0  0  0  0  0  0  0  0  0
   30.3400   28.4900   35.2600 C   0  0  0  0  0  0  0  0  0  0  0  0
   31.1100   28.8200   34.1400 C   0  0  0  0  0  0  0  0  0  0  0  0
   30.5200   28.6700   32.8800 C   0  0  0  0  0  0  0  0  0  0  0  0
   29.2900   28.0200   32.7700 C   0  0  0  0  0  0  0  0  0  0  0  0
   28.5200   27.7100   33.8900 C   0  0  0  0  0  0  0  0  0  0  0  0
   27.2700   27.0800   33.7600 C   0  0  0  0  0  0  0  0  0  0  0  0
   26.7500   26.8800   32.4900 N   0  0  0  0  0  0  0  0  0  0  0  0
   23.0431   26.0648   36.1590 C   0  0  0  0  0  0  0  0  0  0  0  0
   22.3508   25.7583   37.2806 N   0  0  0  0  0  0  0  0  0  0  0  0
   21.0097   25.8360   37.0752 C   0  0  0  0  0  0  0  0  0  0  0  0
   20.0030   25.5531   38.1516 C   0  0  0  0  0  0  0  0  0  0  0  0
   18.6301   25.5438   37.6102 N   0  0  0  0  0  0  0  0  0  0  0  0
   17.6077   24.8040   38.3134 C   0  0  0  0  0  0  0  0  0  0  0  0
   17.8246   24.3934   39.4862 O   0  0  0  0  0  0  0  0  0  0  0  0
   16.2783   24.5069   37.6888 C   0  0  0  0  0  0  0  0  0  0  0  0
   18.2863   26.5039   36.5421 C   0  0  0  0  0  0  0  0  0  0  0  0
   19.2184   26.3241   35.3379 C   0  0  0  0  0  0  0  0  0  0  0  0
   20.6345   26.2394   35.8030 C   0  0  0  0  0  0  0  0  0  0  0  0
   22.0158   26.4712   34.8758 S   0  0  0  0  0  0  0  0  0  0  0  0
  1  2  1  0
  2  3  2  0
  2  4  1  0
  4  5  2  0
  5  6  1  0
  6  7  2  0
  7  8  1  0
  8  9  2  0
  9 10  1  0
 10 11  2  0
 11 12  1  0
 12 13  2  0
 13 14  1  0
  1 15  1  0
 15 16  2  0
 16 17  1  0
 17 18  1  0
 18 19  1  0
 19 20  1  0
 20 21  2  0
 20 22  1  0
 19 23  1  0
 23 24  1  0
 24 25  1  0
 25 26  1  0
 13  4  1  0
 26 15  1  0
 12  7  1  0
 25 17  2  0
M  END
>  <AAScore>  (1) 
102.97051509450368

>  <RootName>  (1) 
./4ZLY/04_DeltaGEst/trajectory_00/rank_01/lead_0228

$$$$
