confid_17
     RDKit          3D

 28 31  0  0  0  0  0  0  0  0999 V2000
   24.5500   26.3900   36.2500 N   0  0  0  0  0  0  0  0  0  0  0  0
   25.6000   26.1300   35.4000 C   0  0  0  0  0  0  0  0  0  0  0  0
   25.4300   25.4300   34.4200 O   0  0  0  0  0  0  0  0  0  0  0  0
   26.9800   26.6300   35.7100 C   0  0  0  0  0  0  0  0  0  0  0  0
   27.3200   26.8200   36.9800 N   0  0  0  0  0  0  0  0  0  0  0  0
   28.4700   27.4000   37.3100 N   0  0  0  0  0  0  0  0  0  0  0  0
   29.4000   27.6300   36.3700 C   0  0  0  0  0  0  0  0  0  0  0  0
   30.6600   28.0500   36.8000 C   0  0  0  0  0  0  0  0  0  0  0  0
   31.5700   28.3600   35.7800 C   0  0  0  0  0  0  0  0  0  0  0  0
   31.3700   28.1000   34.4300 C   0  0  0  0  0  0  0  0  0  0  0  0
   30.1200   27.5900   34.0500 C   0  0  0  0  0  0  0  0  0  0  0  0
   29.1500   27.3400   35.0300 C   0  0  0  0  0  0  0  0  0  0  0  0
   27.8800   26.8900   34.6600 C   0  0  0  0  0  0  0  0  0  0  0  0
   27.4800   26.6100   33.3700 N   0  0  0  0  0  0  0  0  0  0  0  0
   31.0050   28.2837   38.2244 C   0  0  0  0  0  0  0  0  0  0  0  0
   31.5662   29.5340   38.6142 C   0  0  0  0  0  0  0  0  0  0  0  0
   31.8653   29.6620   39.9544 C   0  0  0  0  0  0  0  0  0  0  0  0
   32.3692   30.4533   41.0354 C   0  0  0  0  0  0  0  0  0  0  0  0
   32.1599   29.4411   42.0045 N   0  0  0  0  0  0  0  0  0  0  0  0
   32.3485   29.2790   43.4095 C   0  0  0  0  0  0  0  0  0  0  0  0
   32.8213   30.2272   44.0906 O   0  0  0  0  0  0  0  0  0  0  0  0
   31.9733   27.9933   44.0717 C   0  0  0  0  0  0  0  0  0  0  0  0
   30.5779   27.8156   43.9626 O   0  0  0  0  0  0  0  0  0  0  0  0
   30.2182   26.5631   44.5039 C   0  0  0  0  0  0  0  0  0  0  0  0
   28.7171   26.3705   44.3560 C   0  0  0  0  0  0  0  0  0  0  0  0
   31.6468   28.6419   40.8909 C   0  0  0  0  0  0  0  0  0  0  0  0
   31.1134   27.4132   40.5621 C   0  0  0  0  0  0  0  0  0  0  0  0
   30.7921   27.2406   39.1932 C   0  0  0  0  0  0  0  0  0  0  0  0
  1  2  1  0
  2  3  2  0
  2  4  1  0
  4  5  2  0
  5  6  1  0
  6  7  2  0
  7  8  1  0
  8  9  2  0
  9 10  1  0
 10 11  2  0
 11 12  1  0
 12 13  2  0
 13 14  1  0
  8 15  1  0
 15 16  2  0
 16 17  1  0
 17 18  1  0
 18 19  1  0
 19 20  1  0
 20 21  2  0
 20 22  1  0
 22 23  1  0
 23 24  1  0
 24 25  1  0
 19 26  1  0
 26 27  1  0
 27 28  2  0
 13  4  1  0
 28 15  1  0
 12  7  1  0
 26 17  2  0
M  END
>  <AAScore>  (1) 
354.45074730148167

>  <RootName>  (1) 
./4ZLY/04_DeltaGEst/trajectory_01/rank_01/lead_0298

$$$$
