confid_14
     RDKit          3D

 30 34  0  0  0  0  0  0  0  0999 V2000
   25.3300   26.2600   34.7600 N   0  0  0  0  0  0  0  0  0  0  0  0
   26.1200   25.9200   33.6900 C   0  0  0  0  0  0  0  0  0  0  0  0
   25.6300   25.1100   32.9400 O   0  0  0  0  0  0  0  0  0  0  0  0
   27.5200   26.3800   33.4600 C   0  0  0  0  0  0  0  0  0  0  0  0
   28.1600   26.6300   34.6100 N   0  0  0  0  0  0  0  0  0  0  0  0
   29.4800   26.8500   34.5700 N   0  0  0  0  0  0  0  0  0  0  0  0
   30.1900   26.7800   33.4400 C   0  0  0  0  0  0  0  0  0  0  0  0
   31.5600   27.0500   33.5000 C   0  0  0  0  0  0  0  0  0  0  0  0
   32.2700   27.2400   32.3100 C   0  0  0  0  0  0  0  0  0  0  0  0
   31.6100   27.2500   31.0800 C   0  0  0  0  0  0  0  0  0  0  0  0
   30.2700   26.8700   31.0600 C   0  0  0  0  0  0  0  0  0  0  0  0
   29.5100   26.6900   32.2300 C   0  0  0  0  0  0  0  0  0  0  0  0
   28.1400   26.4100   32.2000 C   0  0  0  0  0  0  0  0  0  0  0  0
   27.4300   26.1300   31.0500 N   0  0  0  0  0  0  0  0  0  0  0  0
   27.5666   24.8093   30.4201 C   0  0  0  0  0  0  0  0  0  0  0  0
   26.5500   24.6204   29.2890 C   0  0  0  0  0  0  0  0  0  0  0  0
   26.5340   25.7943   28.4017 N   0  0  0  0  0  0  0  0  0  0  0  0
   26.2735   25.6329   26.9902 C   0  0  0  0  0  0  0  0  0  0  0  0
   26.9150   26.4544   26.0487 C   0  0  0  0  0  0  0  0  0  0  0  0
   26.6566   26.3064   24.6848 C   0  0  0  0  0  0  0  0  0  0  0  0
   25.7425   25.3444   24.2339 C   0  0  0  0  0  0  0  0  0  0  0  0
   25.5311   25.1626   22.7481 C   0  0  0  0  0  0  0  0  0  0  0  0
   24.2747   24.4578   22.4259 N   0  0  0  0  0  0  0  0  0  0  0  0
   23.1010   25.3407   22.5433 C   0  0  0  0  0  0  0  0  0  0  0  0
   24.1352   23.2184   23.2149 C   0  0  0  0  0  0  0  0  0  0  0  0
   24.0835   23.4862   24.7267 C   0  0  0  0  0  0  0  0  0  0  0  0
   25.1091   24.4980   25.1657 C   0  0  0  0  0  0  0  0  0  0  0  0
   25.3653   24.6601   26.5359 C   0  0  0  0  0  0  0  0  0  0  0  0
   26.6328   27.1508   28.9674 C   0  0  0  0  0  0  0  0  0  0  0  0
   26.5197   27.1358   30.4938 C   0  0  0  0  0  0  0  0  0  0  0  0
  1  2  1  0
  2  3  2  0
  2  4  1  0
  4  5  2  0
  5  6  1  0
  6  7  2  0
  7  8  1  0
  8  9  2  0
  9 10  1  0
 10 11  2  0
 11 12  1  0
 12 13  2  0
 13 14  1  0
 14 15  1  0
 15 16  1  0
 16 17  1  0
 17 18  1  0
 18 19  2  0
 19 20  1  0
 20 21  2  0
 21 22  1  0
 22 23  1  0
 23 24  1  0
 23 25  1  0
 25 26  1  0
 26 27  1  0
 27 28  2  0
 17 29  1  0
 29 30  1  0
 13  4  1  0
 30 14  1  0
 12  7  1  0
 28 18  1  0
 27 21  1  0
M  END
>  <AAScore>  (1) 
2.212897913300603

>  <RootName>  (1) 
./4ZLY/04_DeltaGEst/trajectory_03/rank_01/lead_0459

$$$$
