confid_16
     RDKit          3D

 25 27  0  0  0  0  0  0  0  0999 V2000
   24.2000   26.2400   35.6900 N   0  0  0  0  0  0  0  0  0  0  0  0
   24.8500   26.2800   34.4800 C   0  0  0  0  0  0  0  0  0  0  0  0
   24.3100   25.7400   33.5400 O   0  0  0  0  0  0  0  0  0  0  0  0
   26.1800   26.9700   34.4700 C   0  0  0  0  0  0  0  0  0  0  0  0
   26.6500   27.6000   35.5500 N   0  0  0  0  0  0  0  0  0  0  0  0
   27.7900   28.2700   35.6200 N   0  0  0  0  0  0  0  0  0  0  0  0
   28.5400   28.3000   34.5100 C   0  0  0  0  0  0  0  0  0  0  0  0
   29.7700   28.9400   34.5600 C   0  0  0  0  0  0  0  0  0  0  0  0
   30.7000   28.8900   33.5000 C   0  0  0  0  0  0  0  0  0  0  0  0
   30.3700   28.1400   32.3700 C   0  0  0  0  0  0  0  0  0  0  0  0
   29.1200   27.5200   32.2800 C   0  0  0  0  0  0  0  0  0  0  0  0
   28.2100   27.6100   33.3300 C   0  0  0  0  0  0  0  0  0  0  0  0
   26.9700   26.9700   33.3100 C   0  0  0  0  0  0  0  0  0  0  0  0
   26.5300   26.2400   32.2200 N   0  0  0  0  0  0  0  0  0  0  0  0
   22.8913   25.6724   35.8584 C   0  0  0  0  0  0  0  0  0  0  0  0
   21.8001   26.4582   36.3022 C   0  0  0  0  0  0  0  0  0  0  0  0
   21.9274   28.2051   36.5781 S   0  0  0  0  0  6  0  0  0  0  0  0
   23.3185   28.6016   36.9838 O   0  0  0  0  0  0  0  0  0  0  0  0
   20.9926   28.5914   37.6901 O   0  0  0  0  0  0  0  0  0  0  0  0
   21.4579   29.0978   35.1038 C   0  0  0  0  0  0  0  0  0  0  0  0
   22.3713   28.7569   33.9339 C   0  0  0  0  0  0  0  0  0  0  0  0
   20.5426   25.8542   36.4630 C   0  0  0  0  0  0  0  0  0  0  0  0
   20.3687   24.4922   36.2091 C   0  0  0  0  0  0  0  0  0  0  0  0
   21.4471   23.7171   35.7844 C   0  0  0  0  0  0  0  0  0  0  0  0
   22.7019   24.3027   35.6104 C   0  0  0  0  0  0  0  0  0  0  0  0
  1  2  1  0
  2  3  2  0
  2  4  1  0
  4  5  2  0
  5  6  1  0
  6  7  2  0
  7  8  1  0
  8  9  2  0
  9 10  1  0
 10 11  2  0
 11 12  1  0
 12 13  2  0
 13 14  1  0
  1 15  1  0
 15 16  2  0
 16 17  1  0
 17 18  2  0
 17 19  2  0
 17 20  1  0
 20 21  1  0
 16 22  1  0
 22 23  2  0
 23 24  1  0
 24 25  2  0
 13  4  1  0
 25 15  1  0
 12  7  1  0
M  END
>  <AAScore>  (1) 
681.973791394981

>  <RootName>  (1) 
./4ZLY/04_DeltaGEst/trajectory_04/rank_00/lead_0384

$$$$
