confid_2
     RDKit          3D

 27 30  0  0  0  0  0  0  0  0999 V2000
   24.2000   26.2400   35.6900 N   0  0  0  0  0  0  0  0  0  0  0  0
   24.8500   26.2800   34.4800 C   0  0  0  0  0  0  0  0  0  0  0  0
   24.3100   25.7400   33.5400 O   0  0  0  0  0  0  0  0  0  0  0  0
   26.1800   26.9700   34.4700 C   0  0  0  0  0  0  0  0  0  0  0  0
   26.6500   27.6000   35.5500 N   0  0  0  0  0  0  0  0  0  0  0  0
   27.7900   28.2700   35.6200 N   0  0  0  0  0  0  0  0  0  0  0  0
   28.5400   28.3000   34.5100 C   0  0  0  0  0  0  0  0  0  0  0  0
   29.7700   28.9400   34.5600 C   0  0  0  0  0  0  0  0  0  0  0  0
   30.7000   28.8900   33.5000 C   0  0  0  0  0  0  0  0  0  0  0  0
   30.3700   28.1400   32.3700 C   0  0  0  0  0  0  0  0  0  0  0  0
   29.1200   27.5200   32.2800 C   0  0  0  0  0  0  0  0  0  0  0  0
   28.2100   27.6100   33.3300 C   0  0  0  0  0  0  0  0  0  0  0  0
   26.9700   26.9700   33.3100 C   0  0  0  0  0  0  0  0  0  0  0  0
   26.5300   26.2400   32.2200 N   0  0  0  0  0  0  0  0  0  0  0  0
   22.7694   26.1220   35.8323 C   0  0  0  0  0  0  0  0  0  0  0  0
   21.9542   26.3322   34.7527 N   0  0  0  0  0  0  0  0  0  0  0  0
   20.6082   26.2450   34.8817 C   0  0  0  0  0  0  0  0  0  0  0  0
   19.5903   26.4410   33.8150 C   0  0  0  0  0  0  0  0  0  0  0  0
   18.2516   26.2163   34.5666 C   0  0  0  0  0  0  0  0  0  0  0  0
   18.6151   25.9214   35.9536 N   0  0  0  0  0  0  0  0  0  0  0  0
   20.0242   25.9546   36.0725 C   0  0  0  0  0  0  0  0  0  0  0  0
   20.7918   25.7348   37.2127 C   0  0  0  0  0  0  0  0  0  0  0  0
   22.1990   25.8238   37.0999 C   0  0  0  0  0  0  0  0  0  0  0  0
   23.0523   25.6141   38.1976 O   0  0  0  0  0  0  0  0  0  0  0  0
   22.6376   25.4203   39.5499 C   0  0  0  0  0  0  0  0  0  0  0  0
   22.1930   26.7389   40.1735 C   0  0  0  0  0  0  0  0  0  0  0  0
   17.6716   25.6448   37.0301 C   0  0  0  0  0  0  0  0  0  0  0  0
  1  2  1  0
  2  3  2  0
  2  4  1  0
  4  5  2  0
  5  6  1  0
  6  7  2  0
  7  8  1  0
  8  9  2  0
  9 10  1  0
 10 11  2  0
 11 12  1  0
 12 13  2  0
 13 14  1  0
  1 15  1  0
 15 16  2  0
 16 17  1  0
 17 18  1  0
 18 19  1  0
 19 20  1  0
 20 21  1  0
 21 22  1  0
 22 23  2  0
 23 24  1  0
 24 25  1  0
 25 26  1  0
 20 27  1  0
 13  4  1  0
 23 15  1  0
 12  7  1  0
 21 17  2  0
M  END
>  <AAScore>  (1) 
762.9172119765577

>  <RootName>  (1) 
./4ZLY/04_DeltaGEst/trajectory_04/rank_00/lead_0168

$$$$
