confid_0
     RDKit          3D

 31 34  0  0  0  0  0  0  0  0999 V2000
   24.5500   26.3900   36.2500 N   0  0  0  0  0  0  0  0  0  0  0  0
   25.6000   26.1300   35.4000 C   0  0  0  0  0  0  0  0  0  0  0  0
   25.4300   25.4300   34.4200 O   0  0  0  0  0  0  0  0  0  0  0  0
   26.9800   26.6300   35.7100 C   0  0  0  0  0  0  0  0  0  0  0  0
   27.3200   26.8200   36.9800 N   0  0  0  0  0  0  0  0  0  0  0  0
   28.4700   27.4000   37.3100 N   0  0  0  0  0  0  0  0  0  0  0  0
   29.4000   27.6300   36.3700 C   0  0  0  0  0  0  0  0  0  0  0  0
   30.6600   28.0500   36.8000 C   0  0  0  0  0  0  0  0  0  0  0  0
   31.5700   28.3600   35.7800 C   0  0  0  0  0  0  0  0  0  0  0  0
   31.3700   28.1000   34.4300 C   0  0  0  0  0  0  0  0  0  0  0  0
   30.1200   27.5900   34.0500 C   0  0  0  0  0  0  0  0  0  0  0  0
   29.1500   27.3400   35.0300 C   0  0  0  0  0  0  0  0  0  0  0  0
   27.8800   26.8900   34.6600 C   0  0  0  0  0  0  0  0  0  0  0  0
   27.4800   26.6100   33.3700 N   0  0  0  0  0  0  0  0  0  0  0  0
   23.1714   25.9124   36.0609 C   0  0  0  0  0  0  0  0  0  0  0  0
   22.5262   26.5657   34.8234 C   0  0  0  0  0  0  0  0  0  0  0  0
   21.1655   25.9301   34.5243 C   0  0  0  0  0  0  0  0  0  0  0  0
   21.2716   24.4694   34.3923 N   0  0  0  0  0  0  0  0  0  0  0  0
   20.1575   23.7484   33.8323 C   0  0  0  0  0  0  0  0  0  0  0  0
   18.9826   24.1473   34.0605 O   0  0  0  0  0  0  0  0  0  0  0  0
   20.3555   22.5507   32.9426 C   0  0  0  0  0  0  0  0  0  0  0  0
   19.7911   22.8233   31.5749 C   0  0  0  0  0  0  0  0  0  0  0  0
   18.5000   22.3856   31.2362 C   0  0  0  0  0  0  0  0  0  0  0  0
   17.9663   22.6726   29.9759 C   0  0  0  0  0  0  0  0  0  0  0  0
   18.7140   23.4068   29.0465 C   0  0  0  0  0  0  0  0  0  0  0  0
   18.1625   23.7042   27.7505 C   0  0  0  0  0  0  0  0  0  0  0  0
   17.7185   23.9435   26.7087 N   0  0  0  0  0  0  0  0  0  0  0  0
   19.9974   23.8550   29.3832 C   0  0  0  0  0  0  0  0  0  0  0  0
   20.5323   23.5684   30.6430 C   0  0  0  0  0  0  0  0  0  0  0  0
   22.5154   23.7775   34.7628 C   0  0  0  0  0  0  0  0  0  0  0  0
   23.0959   24.3609   36.0586 C   0  0  0  0  0  0  0  0  0  0  0  0
  1  2  1  0
  2  3  2  0
  2  4  1  0
  4  5  2  0
  5  6  1  0
  6  7  2  0
  7  8  1  0
  8  9  2  0
  9 10  1  0
 10 11  2  0
 11 12  1  0
 12 13  2  0
 13 14  1  0
  1 15  1  0
 15 16  1  0
 16 17  1  0
 17 18  1  0
 18 19  1  0
 19 20  2  0
 19 21  1  0
 21 22  1  0
 22 23  2  0
 23 24  1  0
 24 25  2  0
 25 26  1  0
 26 27  3  0
 25 28  1  0
 28 29  2  0
 18 30  1  0
 30 31  1  0
 13  4  1  0
 31 15  1  0
 12  7  1  0
 29 22  1  0
M  END
>  <AAScore>  (1) 
565.1129906201481

>  <RootName>  (1) 
./4ZLY/04_DeltaGEst/trajectory_01/rank_00/lead_0087

$$$$
