confid_15
     RDKit          3D

 28 31  0  0  0  0  0  0  0  0999 V2000
   24.4800   26.1000   36.1300 N   0  0  0  0  0  0  0  0  0  0  0  0
   25.2500   26.2500   34.9900 C   0  0  0  0  0  0  0  0  0  0  0  0
   24.7400   25.7600   33.9900 O   0  0  0  0  0  0  0  0  0  0  0  0
   26.5900   26.8900   34.9600 C   0  0  0  0  0  0  0  0  0  0  0  0
   27.0600   27.2400   36.1600 N   0  0  0  0  0  0  0  0  0  0  0  0
   28.3000   27.7100   36.2400 N   0  0  0  0  0  0  0  0  0  0  0  0
   29.0500   27.9600   35.1500 C   0  0  0  0  0  0  0  0  0  0  0  0
   30.3400   28.4900   35.2600 C   0  0  0  0  0  0  0  0  0  0  0  0
   31.1100   28.8200   34.1400 C   0  0  0  0  0  0  0  0  0  0  0  0
   30.5200   28.6700   32.8800 C   0  0  0  0  0  0  0  0  0  0  0  0
   29.2900   28.0200   32.7700 C   0  0  0  0  0  0  0  0  0  0  0  0
   28.5200   27.7100   33.8900 C   0  0  0  0  0  0  0  0  0  0  0  0
   27.2700   27.0800   33.7600 C   0  0  0  0  0  0  0  0  0  0  0  0
   26.7500   26.8800   32.4900 N   0  0  0  0  0  0  0  0  0  0  0  0
   23.1082   25.6753   36.1222 C   0  0  0  0  0  0  0  0  0  0  0  0
   22.6953   24.5881   36.8047 N   0  0  0  0  0  0  0  0  0  0  0  0
   21.3769   24.5177   36.5452 C   0  0  0  0  0  0  0  0  0  0  0  0
   21.0104   25.5577   35.7180 C   0  0  0  0  0  0  0  0  0  0  0  0
   19.5850   25.8530   35.3322 C   0  0  0  0  0  0  0  0  0  0  0  0
   19.5351   26.7249   34.1460 N   0  0  0  0  0  0  0  0  0  0  0  0
   19.4915   25.9746   32.8751 C   0  0  0  0  0  0  0  0  0  0  0  0
   18.1041   25.4094   32.5380 C   0  0  0  0  0  0  0  0  0  0  0  0
   18.4753   27.5811   34.2118 O   0  0  0  0  0  0  0  0  0  0  0  0
   18.8745   28.7540   34.9036 C   0  0  0  0  0  0  0  0  0  0  0  0
   20.2735   29.3070   34.5340 C   0  0  0  0  0  0  0  0  0  0  0  0
   21.4163   28.7200   35.4003 C   0  0  0  0  0  0  0  0  0  0  0  0
   22.2035   27.5798   34.7155 C   0  0  0  0  0  0  0  0  0  0  0  0
   22.1076   26.3148   35.4662 N   0  0  0  0  0  0  0  0  0  0  0  0
  1  2  1  0
  2  3  2  0
  2  4  1  0
  4  5  2  0
  5  6  1  0
  6  7  2  0
  7  8  1  0
  8  9  2  0
  9 10  1  0
 10 11  2  0
 11 12  1  0
 12 13  2  0
 13 14  1  0
  1 15  1  0
 15 16  2  0
 16 17  1  0
 17 18  2  0
 18 19  1  0
 19 20  1  0
 20 21  1  0
 21 22  1  0
 20 23  1  0
 23 24  1  0
 24 25  1  0
 25 26  1  0
 26 27  1  0
 27 28  1  0
 13  4  1  0
 28 15  1  0
 12  7  1  0
 28 18  1  0
M  END
>  <AAScore>  (1) 
4036.251249732063

>  <RootName>  (1) 
./4ZLY/04_DeltaGEst/trajectory_00/rank_00/lead_0081

$$$$
