confid_15
     RDKit          3D

 27 30  0  0  0  0  0  0  0  0999 V2000
   24.6900   26.1200   35.5300 N   0  0  0  0  0  0  0  0  0  0  0  0
   25.6600   25.6700   34.6600 C   0  0  0  0  0  0  0  0  0  0  0  0
   25.2400   25.0100   33.7200 O   0  0  0  0  0  0  0  0  0  0  0  0
   27.0300   26.2200   34.8800 C   0  0  0  0  0  0  0  0  0  0  0  0
   27.3500   26.7300   36.0700 N   0  0  0  0  0  0  0  0  0  0  0  0
   28.5700   27.1800   36.3300 N   0  0  0  0  0  0  0  0  0  0  0  0
   29.5300   27.1100   35.3900 C   0  0  0  0  0  0  0  0  0  0  0  0
   30.8300   27.5700   35.6500 C   0  0  0  0  0  0  0  0  0  0  0  0
   31.8500   27.5400   34.6900 C   0  0  0  0  0  0  0  0  0  0  0  0
   31.5100   27.1200   33.4000 C   0  0  0  0  0  0  0  0  0  0  0  0
   30.2200   26.6300   33.1100 C   0  0  0  0  0  0  0  0  0  0  0  0
   29.2400   26.6600   34.1000 C   0  0  0  0  0  0  0  0  0  0  0  0
   27.9300   26.2600   33.8100 C   0  0  0  0  0  0  0  0  0  0  0  0
   27.5200   25.7100   32.6100 N   0  0  0  0  0  0  0  0  0  0  0  0
   31.1454   28.0697   36.9587 N   0  0  0  0  0  0  0  0  0  0  0  0
   30.6339   29.3776   37.3869 C   0  0  0  0  0  0  0  0  0  0  0  0
   30.0811   29.2855   38.8153 C   0  0  0  0  0  0  0  0  0  0  0  0
   30.9495   28.4736   39.6836 N   0  0  0  0  0  0  0  0  0  0  0  0
   30.4850   28.0911   40.9924 C   0  0  0  0  0  0  0  0  0  0  0  0
   29.9516   29.0495   41.8673 C   0  0  0  0  0  0  0  0  0  0  0  0
   29.4917   28.6553   43.1254 C   0  0  0  0  0  0  0  0  0  0  0  0
   29.5557   27.3499   43.4973 N   0  0  0  0  0  0  0  0  0  0  0  0
   30.0646   26.3940   42.6735 C   0  0  0  0  0  0  0  0  0  0  0  0
   30.0946   24.9665   43.1182 C   0  0  0  0  0  0  0  0  0  0  0  0
   30.5326   26.7489   41.4015 C   0  0  0  0  0  0  0  0  0  0  0  0
   32.2414   27.9915   39.1762 C   0  0  0  0  0  0  0  0  0  0  0  0
   32.0359   27.2912   37.8306 C   0  0  0  0  0  0  0  0  0  0  0  0
  1  2  1  0
  2  3  2  0
  2  4  1  0
  4  5  2  0
  5  6  1  0
  6  7  2  0
  7  8  1  0
  8  9  2  0
  9 10  1  0
 10 11  2  0
 11 12  1  0
 12 13  2  0
 13 14  1  0
  8 15  1  0
 15 16  1  0
 16 17  1  0
 17 18  1  0
 18 19  1  0
 19 20  2  0
 20 21  1  0
 21 22  2  0
 22 23  1  0
 23 24  1  0
 23 25  2  0
 18 26  1  0
 26 27  1  0
 13  4  1  0
 27 15  1  0
 12  7  1  0
 25 19  1  0
M  END
>  <AAScore>  (1) 
36.86334347092355

>  <RootName>  (1) 
./4ZLY/04_DeltaGEst/trajectory_02/rank_01/lead_0447

$$$$
