confid_15
     RDKit          3D

 26 29  0  0  0  0  0  0  0  0999 V2000
   25.3300   26.2600   34.7600 N   0  0  0  0  0  0  0  0  0  0  0  0
   26.1200   25.9200   33.6900 C   0  0  0  0  0  0  0  0  0  0  0  0
   25.6300   25.1100   32.9400 O   0  0  0  0  0  0  0  0  0  0  0  0
   27.5200   26.3800   33.4600 C   0  0  0  0  0  0  0  0  0  0  0  0
   28.1600   26.6300   34.6100 N   0  0  0  0  0  0  0  0  0  0  0  0
   29.4800   26.8500   34.5700 N   0  0  0  0  0  0  0  0  0  0  0  0
   30.1900   26.7800   33.4400 C   0  0  0  0  0  0  0  0  0  0  0  0
   31.5600   27.0500   33.5000 C   0  0  0  0  0  0  0  0  0  0  0  0
   32.2700   27.2400   32.3100 C   0  0  0  0  0  0  0  0  0  0  0  0
   31.6100   27.2500   31.0800 C   0  0  0  0  0  0  0  0  0  0  0  0
   30.2700   26.8700   31.0600 C   0  0  0  0  0  0  0  0  0  0  0  0
   29.5100   26.6900   32.2300 C   0  0  0  0  0  0  0  0  0  0  0  0
   28.1400   26.4100   32.2000 C   0  0  0  0  0  0  0  0  0  0  0  0
   27.4300   26.1300   31.0500 N   0  0  0  0  0  0  0  0  0  0  0  0
   24.2345   25.4901   35.2868 C   0  0  0  0  0  0  0  0  0  0  0  0
   23.3477   26.0524   36.1820 N   0  0  0  0  0  0  0  0  0  0  0  0
   22.5001   25.0681   36.5046 C   0  0  0  0  0  0  0  0  0  0  0  0
   21.3706   24.5459   37.2120 C   0  0  0  0  0  0  0  0  0  0  0  0
   21.5207   23.2502   36.6551 N   0  0  0  0  0  0  0  0  0  0  0  0
   20.8770   21.9794   36.7387 C   0  0  0  0  0  0  0  0  0  0  0  0
   21.3371   21.0052   36.0857 O   0  0  0  0  0  0  0  0  0  0  0  0
   19.6949   21.7874   37.6410 C   0  0  2  0  0  0  0  0  0  0  0  0
   20.1506   21.3850   39.0393 C   0  0  0  0  0  0  0  0  0  0  0  0
   18.8626   20.8082   37.1258 F   0  0  0  0  0  0  0  0  0  0  0  0
   22.6681   23.8256   35.9523 C   0  0  0  0  0  0  0  0  0  0  0  0
   23.9692   23.7820   34.9297 S   0  0  0  0  0  0  0  0  0  0  0  0
  1  2  1  0
  2  3  2  0
  2  4  1  0
  4  5  2  0
  5  6  1  0
  6  7  2  0
  7  8  1  0
  8  9  2  0
  9 10  1  0
 10 11  2  0
 11 12  1  0
 12 13  2  0
 13 14  1  0
  1 15  1  0
 15 16  2  0
 16 17  1  0
 17 18  1  0
 18 19  1  0
 19 20  1  0
 20 21  2  0
 20 22  1  0
 22 23  1  1
 22 24  1  0
 19 25  1  0
 25 26  1  0
 13  4  1  0
 26 15  1  0
 12  7  1  0
 25 17  2  0
M  END
>  <AAScore>  (1) 
2389.2009717688184

>  <RootName>  (1) 
./4ZLY/04_DeltaGEst/trajectory_03/rank_00/lead_0390

$$$$
