confid_12
     RDKit          3D

 29 32  0  0  0  0  0  0  0  0999 V2000
   24.5500   26.3900   36.2500 N   0  0  0  0  0  0  0  0  0  0  0  0
   25.6000   26.1300   35.4000 C   0  0  0  0  0  0  0  0  0  0  0  0
   25.4300   25.4300   34.4200 O   0  0  0  0  0  0  0  0  0  0  0  0
   26.9800   26.6300   35.7100 C   0  0  0  0  0  0  0  0  0  0  0  0
   27.3200   26.8200   36.9800 N   0  0  0  0  0  0  0  0  0  0  0  0
   28.4700   27.4000   37.3100 N   0  0  0  0  0  0  0  0  0  0  0  0
   29.4000   27.6300   36.3700 C   0  0  0  0  0  0  0  0  0  0  0  0
   30.6600   28.0500   36.8000 C   0  0  0  0  0  0  0  0  0  0  0  0
   31.5700   28.3600   35.7800 C   0  0  0  0  0  0  0  0  0  0  0  0
   31.3700   28.1000   34.4300 C   0  0  0  0  0  0  0  0  0  0  0  0
   30.1200   27.5900   34.0500 C   0  0  0  0  0  0  0  0  0  0  0  0
   29.1500   27.3400   35.0300 C   0  0  0  0  0  0  0  0  0  0  0  0
   27.8800   26.8900   34.6600 C   0  0  0  0  0  0  0  0  0  0  0  0
   27.4800   26.6100   33.3700 N   0  0  0  0  0  0  0  0  0  0  0  0
   23.2102   25.8872   36.0736 C   0  0  0  0  0  0  0  0  0  0  0  0
   22.8397   25.1069   35.0342 N   0  0  0  0  0  0  0  0  0  0  0  0
   21.5311   24.8704   35.2437 C   0  0  0  0  0  0  0  0  0  0  0  0
   21.1268   25.5107   36.3951 C   0  0  0  0  0  0  0  0  0  0  0  0
   19.7455   25.4396   36.9796 C   0  0  0  0  0  0  0  0  0  0  0  0
   19.6875   24.3980   38.0138 N   0  0  0  0  0  0  0  0  0  0  0  0
   19.8971   24.7762   39.4195 C   0  0  0  0  0  0  0  0  0  0  0  0
   21.3239   24.4125   39.8840 C   0  0  0  0  0  0  0  0  0  0  0  0
   22.1454   25.6260   40.3618 C   0  0  0  0  0  0  0  0  0  0  0  0
   23.0318   26.2440   39.2677 C   0  0  0  0  0  0  0  0  0  0  0  0
   22.2487   26.9615   38.1510 C   0  0  0  0  0  0  0  0  0  0  0  0
   22.1914   26.1475   36.9292 N   0  0  0  0  0  0  0  0  0  0  0  0
   19.4801   23.0170   37.6304 C   0  0  0  0  0  0  0  0  0  0  0  0
   19.4140   22.7062   36.4099 O   0  0  0  0  0  0  0  0  0  0  0  0
   19.3196   21.9281   38.6498 C   0  0  0  0  0  0  0  0  0  0  0  0
  1  2  1  0
  2  3  2  0
  2  4  1  0
  4  5  2  0
  5  6  1  0
  6  7  2  0
  7  8  1  0
  8  9  2  0
  9 10  1  0
 10 11  2  0
 11 12  1  0
 12 13  2  0
 13 14  1  0
  1 15  1  0
 15 16  2  0
 16 17  1  0
 17 18  2  0
 18 19  1  0
 19 20  1  0
 20 21  1  0
 21 22  1  0
 22 23  1  0
 23 24  1  0
 24 25  1  0
 25 26  1  0
 20 27  1  0
 27 28  2  0
 27 29  1  0
 13  4  1  0
 26 15  1  0
 12  7  1  0
 26 18  1  0
M  END
>  <AAScore>  (1) 
2446.9229436556197

>  <RootName>  (1) 
./4ZLY/04_DeltaGEst/trajectory_01/rank_00/lead_0163

$$$$
