confid_2
     RDKit          3D

 29 32  0  0  0  0  0  0  0  0999 V2000
   24.2000   26.2400   35.6900 N   0  0  0  0  0  0  0  0  0  0  0  0
   24.8500   26.2800   34.4800 C   0  0  0  0  0  0  0  0  0  0  0  0
   24.3100   25.7400   33.5400 O   0  0  0  0  0  0  0  0  0  0  0  0
   26.1800   26.9700   34.4700 C   0  0  0  0  0  0  0  0  0  0  0  0
   26.6500   27.6000   35.5500 N   0  0  0  0  0  0  0  0  0  0  0  0
   27.7900   28.2700   35.6200 N   0  0  0  0  0  0  0  0  0  0  0  0
   28.5400   28.3000   34.5100 C   0  0  0  0  0  0  0  0  0  0  0  0
   29.7700   28.9400   34.5600 C   0  0  0  0  0  0  0  0  0  0  0  0
   30.7000   28.8900   33.5000 C   0  0  0  0  0  0  0  0  0  0  0  0
   30.3700   28.1400   32.3700 C   0  0  0  0  0  0  0  0  0  0  0  0
   29.1200   27.5200   32.2800 C   0  0  0  0  0  0  0  0  0  0  0  0
   28.2100   27.6100   33.3300 C   0  0  0  0  0  0  0  0  0  0  0  0
   26.9700   26.9700   33.3100 C   0  0  0  0  0  0  0  0  0  0  0  0
   26.5300   26.2400   32.2200 N   0  0  0  0  0  0  0  0  0  0  0  0
   30.1421   29.6754   35.7421 N   0  0  0  0  0  0  0  0  0  0  0  0
   29.3735   30.8599   36.1474 C   0  0  0  0  0  0  0  0  0  0  0  0
   30.3095   31.9347   36.7190 C   0  0  0  0  0  0  0  0  0  0  0  0
   31.6067   31.8633   36.0207 N   0  0  0  0  0  0  0  0  0  0  0  0
   32.4270   33.0614   36.2862 C   0  0  0  0  0  0  0  0  0  0  0  0
   33.5311   33.1669   35.2731 C   0  0  0  0  0  0  0  0  0  0  0  0
   34.8873   33.1321   35.5411 C   0  0  0  0  0  0  0  0  0  0  0  0
   35.5236   33.2232   34.3164 C   0  0  0  0  0  0  0  0  0  0  0  0
   37.0103   33.2224   34.1286 C   0  0  0  0  0  0  0  0  0  0  0  0
   34.6137   33.2793   33.3143 N   0  0  0  0  0  0  0  0  0  0  0  0
   34.8915   33.4096   31.8826 C   0  0  0  0  0  0  0  0  0  0  0  0
   33.3918   33.2771   33.8968 C   0  0  0  0  0  0  0  0  0  0  0  0
   32.0881   33.2690   33.1474 C   0  0  0  0  0  0  0  0  0  0  0  0
   32.3353   30.6204   36.3782 C   0  0  0  0  0  0  0  0  0  0  0  0
   31.4054   29.3905   36.4305 C   0  0  0  0  0  0  0  0  0  0  0  0
  1  2  1  0
  2  3  2  0
  2  4  1  0
  4  5  2  0
  5  6  1  0
  6  7  2  0
  7  8  1  0
  8  9  2  0
  9 10  1  0
 10 11  2  0
 11 12  1  0
 12 13  2  0
 13 14  1  0
  8 15  1  0
 15 16  1  0
 16 17  1  0
 17 18  1  0
 18 19  1  0
 19 20  1  0
 20 21  1  0
 21 22  2  0
 22 23  1  0
 22 24  1  0
 24 25  1  0
 24 26  1  0
 26 27  1  0
 18 28  1  0
 28 29  1  0
 13  4  1  0
 29 15  1  0
 12  7  1  0
 26 20  2  0
M  END
>  <AAScore>  (1) 
-7.791170138307339

>  <RootName>  (1) 
./4ZLY/04_DeltaGEst/trajectory_04/rank_01/lead_0306

$$$$
