confid_8
     RDKit          3D

 27 30  0  0  0  0  0  0  0  0999 V2000
   24.6900   26.1200   35.5300 N   0  0  0  0  0  0  0  0  0  0  0  0
   25.6600   25.6700   34.6600 C   0  0  0  0  0  0  0  0  0  0  0  0
   25.2400   25.0100   33.7200 O   0  0  0  0  0  0  0  0  0  0  0  0
   27.0300   26.2200   34.8800 C   0  0  0  0  0  0  0  0  0  0  0  0
   27.3500   26.7300   36.0700 N   0  0  0  0  0  0  0  0  0  0  0  0
   28.5700   27.1800   36.3300 N   0  0  0  0  0  0  0  0  0  0  0  0
   29.5300   27.1100   35.3900 C   0  0  0  0  0  0  0  0  0  0  0  0
   30.8300   27.5700   35.6500 C   0  0  0  0  0  0  0  0  0  0  0  0
   31.8500   27.5400   34.6900 C   0  0  0  0  0  0  0  0  0  0  0  0
   31.5100   27.1200   33.4000 C   0  0  0  0  0  0  0  0  0  0  0  0
   30.2200   26.6300   33.1100 C   0  0  0  0  0  0  0  0  0  0  0  0
   29.2400   26.6600   34.1000 C   0  0  0  0  0  0  0  0  0  0  0  0
   27.9300   26.2600   33.8100 C   0  0  0  0  0  0  0  0  0  0  0  0
   27.5200   25.7100   32.6100 N   0  0  0  0  0  0  0  0  0  0  0  0
   31.1740   28.0683   37.0029 C   0  0  0  0  0  0  0  0  0  0  0  0
   31.2161   27.1552   38.0691 C   0  0  0  0  0  0  0  0  0  0  0  0
   31.5535   27.5805   39.3591 C   0  0  0  0  0  0  0  0  0  0  0  0
   31.6268   26.4226   40.6823 S   0  0  0  0  0  6  0  0  0  0  0  0
   30.6522   25.3064   40.4312 O   0  0  0  0  0  0  0  0  0  0  0  0
   31.2492   27.1063   41.9680 O   0  0  0  0  0  0  0  0  0  0  0  0
   33.2842   25.7488   40.7600 C   0  0  0  0  0  0  0  0  0  0  0  0
   33.7487   25.3313   42.1449 C   0  0  0  0  0  0  0  0  0  0  0  0
   34.2801   26.6111   41.5168 C   0  0  0  0  0  0  0  0  0  0  0  0
   31.8700   28.9240   39.5842 C   0  0  0  0  0  0  0  0  0  0  0  0
   31.8271   29.8428   38.5340 C   0  0  0  0  0  0  0  0  0  0  0  0
   31.4644   29.4334   37.2403 C   0  0  0  0  0  0  0  0  0  0  0  0
   31.4228   30.4513   36.1311 C   0  0  0  0  0  0  0  0  0  0  0  0
  1  2  1  0
  2  3  2  0
  2  4  1  0
  4  5  2  0
  5  6  1  0
  6  7  2  0
  7  8  1  0
  8  9  2  0
  9 10  1  0
 10 11  2  0
 11 12  1  0
 12 13  2  0
 13 14  1  0
  8 15  1  0
 15 16  2  0
 16 17  1  0
 17 18  1  0
 18 19  2  0
 18 20  2  0
 18 21  1  0
 21 22  1  0
 22 23  1  0
 17 24  2  0
 24 25  1  0
 25 26  2  0
 26 27  1  0
 13  4  1  0
 26 15  1  0
 12  7  1  0
 23 21  1  0
M  END
>  <AAScore>  (1) 
15.31394139247416

>  <RootName>  (1) 
./4ZLY/04_DeltaGEst/trajectory_02/rank_01/lead_0047

$$$$
