confid_11
     RDKit          3D

 28 31  0  0  0  0  0  0  0  0999 V2000
   24.5500   26.3900   36.2500 N   0  0  0  0  0  0  0  0  0  0  0  0
   25.6000   26.1300   35.4000 C   0  0  0  0  0  0  0  0  0  0  0  0
   25.4300   25.4300   34.4200 O   0  0  0  0  0  0  0  0  0  0  0  0
   26.9800   26.6300   35.7100 C   0  0  0  0  0  0  0  0  0  0  0  0
   27.3200   26.8200   36.9800 N   0  0  0  0  0  0  0  0  0  0  0  0
   28.4700   27.4000   37.3100 N   0  0  0  0  0  0  0  0  0  0  0  0
   29.4000   27.6300   36.3700 C   0  0  0  0  0  0  0  0  0  0  0  0
   30.6600   28.0500   36.8000 C   0  0  0  0  0  0  0  0  0  0  0  0
   31.5700   28.3600   35.7800 C   0  0  0  0  0  0  0  0  0  0  0  0
   31.3700   28.1000   34.4300 C   0  0  0  0  0  0  0  0  0  0  0  0
   30.1200   27.5900   34.0500 C   0  0  0  0  0  0  0  0  0  0  0  0
   29.1500   27.3400   35.0300 C   0  0  0  0  0  0  0  0  0  0  0  0
   27.8800   26.8900   34.6600 C   0  0  0  0  0  0  0  0  0  0  0  0
   27.4800   26.6100   33.3700 N   0  0  0  0  0  0  0  0  0  0  0  0
   23.1760   26.4304   35.8224 C   0  0  0  0  0  0  0  0  0  0  0  0
   22.8715   26.5117   34.5017 N   0  0  0  0  0  0  0  0  0  0  0  0
   21.5941   26.6177   34.0605 C   0  0  0  0  0  0  0  0  0  0  0  0
   20.5167   26.6487   34.9631 C   0  0  0  0  0  0  0  0  0  0  0  0
   19.1334   26.8667   34.3816 C   0  0  0  0  0  0  0  0  0  0  0  0
   18.5785   28.2624   34.6909 C   0  0  0  0  0  0  0  0  0  0  0  0
   18.6149   28.5808   36.1330 N   0  0  0  0  0  0  0  0  0  0  0  0
   18.2356   29.9883   36.3376 C   0  0  0  0  0  0  0  0  0  0  0  0
   17.7297   27.6920   36.9180 C   0  0  0  0  0  0  0  0  0  0  0  0
   18.4463   26.3932   37.3205 C   0  0  0  0  0  0  0  0  0  0  0  0
   19.8583   26.5634   37.4039 O   0  0  0  0  0  0  0  0  0  0  0  0
   20.8064   26.5512   36.3600 C   0  0  0  0  0  0  0  0  0  0  0  0
   22.1446   26.4540   36.7664 C   0  0  0  0  0  0  0  0  0  0  0  0
   22.4335   26.3701   38.0904 F   0  0  0  0  0  0  0  0  0  0  0  0
  1  2  1  0
  2  3  2  0
  2  4  1  0
  4  5  2  0
  5  6  1  0
  6  7  2  0
  7  8  1  0
  8  9  2  0
  9 10  1  0
 10 11  2  0
 11 12  1  0
 12 13  2  0
 13 14  1  0
  1 15  1  0
 15 16  2  0
 16 17  1  0
 17 18  2  0
 18 19  1  0
 19 20  1  0
 20 21  1  0
 21 22  1  0
 21 23  1  0
 23 24  1  0
 24 25  1  0
 25 26  1  0
 26 27  2  0
 27 28  1  0
 13  4  1  0
 27 15  1  0
 12  7  1  0
 26 18  1  0
M  END
>  <AAScore>  (1) 
66.12236014097606

>  <RootName>  (1) 
./4ZLY/04_DeltaGEst/trajectory_01/rank_00/lead_0216

$$$$
