confid_0
     RDKit          3D

 31 36  0  0  0  0  0  0  0  0999 V2000
   24.6900   26.1200   35.5300 N   0  0  0  0  0  0  0  0  0  0  0  0
   25.6600   25.6700   34.6600 C   0  0  0  0  0  0  0  0  0  0  0  0
   25.2400   25.0100   33.7200 O   0  0  0  0  0  0  0  0  0  0  0  0
   27.0300   26.2200   34.8800 C   0  0  0  0  0  0  0  0  0  0  0  0
   27.3500   26.7300   36.0700 N   0  0  0  0  0  0  0  0  0  0  0  0
   28.5700   27.1800   36.3300 N   0  0  0  0  0  0  0  0  0  0  0  0
   29.5300   27.1100   35.3900 C   0  0  0  0  0  0  0  0  0  0  0  0
   30.8300   27.5700   35.6500 C   0  0  0  0  0  0  0  0  0  0  0  0
   31.8500   27.5400   34.6900 C   0  0  0  0  0  0  0  0  0  0  0  0
   31.5100   27.1200   33.4000 C   0  0  0  0  0  0  0  0  0  0  0  0
   30.2200   26.6300   33.1100 C   0  0  0  0  0  0  0  0  0  0  0  0
   29.2400   26.6600   34.1000 C   0  0  0  0  0  0  0  0  0  0  0  0
   27.9300   26.2600   33.8100 C   0  0  0  0  0  0  0  0  0  0  0  0
   27.5200   25.7100   32.6100 N   0  0  0  0  0  0  0  0  0  0  0  0
   23.3262   26.4115   35.1684 C   0  0  0  0  0  0  0  0  0  0  0  0
   22.9622   26.4106   33.9141 N   0  0  0  0  0  0  0  0  0  0  0  0
   21.6896   26.6466   33.2685 C   0  0  0  0  0  0  0  0  0  0  0  0
   20.7163   27.4853   33.6629 C   0  0  0  0  0  0  0  0  0  0  0  0
   19.4422   27.9660   33.0226 C   0  0  0  0  0  0  0  0  0  0  0  0
   19.0975   28.8525   34.0361 O   0  0  0  0  0  0  0  0  0  0  0  0
   20.2397   28.4630   34.7243 C   0  0  1  0  0  0  0  0  0  0  0  0
   19.8571   27.8016   36.0544 C   0  0  0  0  0  0  0  0  0  0  0  0
   21.0897   27.2145   36.5937 C   0  0  0  0  0  0  0  0  0  0  0  0
   22.3848   26.7045   36.2364 C   0  0  0  0  0  0  0  0  0  0  0  0
   22.0023   26.8203   37.5772 C   0  0  0  0  0  0  0  0  0  0  0  0
   21.6743   25.5127   38.3057 C   0  0  0  0  0  0  0  0  0  0  0  0
   21.0050   25.7795   39.6754 C   0  0  0  0  0  0  0  0  0  0  0  0
   21.0777   27.1997   40.0976 N   0  0  0  0  0  0  0  0  0  0  0  0
   22.4269   27.7550   39.8756 C   0  0  0  0  0  0  0  0  0  0  0  0
   22.6672   27.9535   38.3737 C   0  0  0  0  0  0  0  0  0  0  0  0
   20.6972   27.3267   41.5124 C   0  0  0  0  0  0  0  0  0  0  0  0
  1  2  1  0
  2  3  2  0
  2  4  1  0
  4  5  2  0
  5  6  1  0
  6  7  2  0
  7  8  1  0
  8  9  2  0
  9 10  1  0
 10 11  2  0
 11 12  1  0
 12 13  2  0
 13 14  1  0
  1 15  1  0
 15 16  2  0
 16 17  1  0
 17 18  2  0
 18 19  1  0
 19 20  1  0
 20 21  1  0
 21 22  1  1
 22 23  1  0
 23 24  2  0
 24 25  1  0
 25 26  1  0
 26 27  1  0
 27 28  1  0
 28 29  1  0
 29 30  1  0
 28 31  1  0
 13  4  1  0
 24 15  1  0
 30 25  1  0
 12  7  1  0
 21 18  1  0
 25 23  1  0
M  END
>  <AAScore>  (1) 
10212.521711994714

>  <RootName>  (1) 
./4ZLY/04_DeltaGEst/trajectory_02/rank_00/lead_0194

$$$$
