confid_7
     RDKit          3D

 26 29  0  0  0  0  0  0  0  0999 V2000
   24.4800   26.1000   36.1300 N   0  0  0  0  0  0  0  0  0  0  0  0
   25.2500   26.2500   34.9900 C   0  0  0  0  0  0  0  0  0  0  0  0
   24.7400   25.7600   33.9900 O   0  0  0  0  0  0  0  0  0  0  0  0
   26.5900   26.8900   34.9600 C   0  0  0  0  0  0  0  0  0  0  0  0
   27.0600   27.2400   36.1600 N   0  0  0  0  0  0  0  0  0  0  0  0
   28.3000   27.7100   36.2400 N   0  0  0  0  0  0  0  0  0  0  0  0
   29.0500   27.9600   35.1500 C   0  0  0  0  0  0  0  0  0  0  0  0
   30.3400   28.4900   35.2600 C   0  0  0  0  0  0  0  0  0  0  0  0
   31.1100   28.8200   34.1400 C   0  0  0  0  0  0  0  0  0  0  0  0
   30.5200   28.6700   32.8800 C   0  0  0  0  0  0  0  0  0  0  0  0
   29.2900   28.0200   32.7700 C   0  0  0  0  0  0  0  0  0  0  0  0
   28.5200   27.7100   33.8900 C   0  0  0  0  0  0  0  0  0  0  0  0
   27.2700   27.0800   33.7600 C   0  0  0  0  0  0  0  0  0  0  0  0
   26.7500   26.8800   32.4900 N   0  0  0  0  0  0  0  0  0  0  0  0
   23.0664   25.8377   36.1504 C   0  0  0  0  0  0  0  0  0  0  0  0
   22.2790   25.8159   35.0508 N   0  0  0  0  0  0  0  0  0  0  0  0
   20.9780   25.5750   35.3666 C   0  0  0  0  0  0  0  0  0  0  0  0
   19.9192   25.4332   34.3042 C   0  0  0  0  0  0  0  0  0  0  0  0
   18.7576   26.3511   34.4798 N   0  0  0  0  0  0  0  0  0  0  0  0
   18.8982   27.5425   33.6273 C   0  0  0  0  0  0  0  0  0  0  0  0
   17.6171   28.3737   33.6423 C   0  0  0  0  0  0  0  0  0  0  0  0
   18.6338   26.7832   35.7758 O   0  0  0  0  0  0  0  0  0  0  0  0
   18.2098   25.6966   36.5766 C   0  0  0  0  0  0  0  0  0  0  0  0
   19.3965   25.1427   37.3859 C   0  0  0  0  0  0  0  0  0  0  0  0
   20.7285   25.4050   36.7325 C   0  0  0  0  0  0  0  0  0  0  0  0
   22.1863   25.5633   37.5578 S   0  0  0  0  0  0  0  0  0  0  0  0
  1  2  1  0
  2  3  2  0
  2  4  1  0
  4  5  2  0
  5  6  1  0
  6  7  2  0
  7  8  1  0
  8  9  2  0
  9 10  1  0
 10 11  2  0
 11 12  1  0
 12 13  2  0
 13 14  1  0
  1 15  1  0
 15 16  2  0
 16 17  1  0
 17 18  1  0
 18 19  1  0
 19 20  1  0
 20 21  1  0
 19 22  1  0
 22 23  1  0
 23 24  1  0
 24 25  1  0
 25 26  1  0
 13  4  1  0
 26 15  1  0
 12  7  1  0
 25 17  2  0
M  END
>  <AAScore>  (1) 
1821.0920772059008

>  <RootName>  (1) 
./4ZLY/04_DeltaGEst/trajectory_00/rank_01/lead_0361

$$$$
