confid_18
     RDKit          3D

 27 30  0  0  0  0  0  0  0  0999 V2000
   25.3300   26.2600   34.7600 N   0  0  0  0  0  0  0  0  0  0  0  0
   26.1200   25.9200   33.6900 C   0  0  0  0  0  0  0  0  0  0  0  0
   25.6300   25.1100   32.9400 O   0  0  0  0  0  0  0  0  0  0  0  0
   27.5200   26.3800   33.4600 C   0  0  0  0  0  0  0  0  0  0  0  0
   28.1600   26.6300   34.6100 N   0  0  0  0  0  0  0  0  0  0  0  0
   29.4800   26.8500   34.5700 N   0  0  0  0  0  0  0  0  0  0  0  0
   30.1900   26.7800   33.4400 C   0  0  0  0  0  0  0  0  0  0  0  0
   31.5600   27.0500   33.5000 C   0  0  0  0  0  0  0  0  0  0  0  0
   32.2700   27.2400   32.3100 C   0  0  0  0  0  0  0  0  0  0  0  0
   31.6100   27.2500   31.0800 C   0  0  0  0  0  0  0  0  0  0  0  0
   30.2700   26.8700   31.0600 C   0  0  0  0  0  0  0  0  0  0  0  0
   29.5100   26.6900   32.2300 C   0  0  0  0  0  0  0  0  0  0  0  0
   28.1400   26.4100   32.2000 C   0  0  0  0  0  0  0  0  0  0  0  0
   27.4300   26.1300   31.0500 N   0  0  0  0  0  0  0  0  0  0  0  0
   24.2275   25.4881   35.2710 C   0  0  0  0  0  0  0  0  0  0  0  0
   23.1823   26.1366   35.8471 N   0  0  0  0  0  0  0  0  0  0  0  0
   22.1227   25.4747   36.3776 C   0  0  0  0  0  0  0  0  0  0  0  0
   22.0750   24.0716   36.3577 C   0  0  0  0  0  0  0  0  0  0  0  0
   20.8775   23.3588   36.9388 C   0  0  0  0  0  0  0  0  0  0  0  0
   20.2893   22.4751   35.9138 N   0  0  0  0  0  0  0  0  0  0  0  0
   18.8479   22.2892   36.1444 C   0  0  0  0  0  0  0  0  0  0  0  0
   18.2178   21.5010   34.9988 C   0  0  0  0  0  0  0  0  0  0  0  0
   20.8835   21.2517   36.0225 O   0  0  0  0  0  0  0  0  0  0  0  0
   21.9677   21.2322   35.1236 C   0  0  0  0  0  0  0  0  0  0  0  0
   23.2090   21.8505   35.7759 C   0  0  0  0  0  0  0  0  0  0  0  0
   23.1584   23.3635   35.7852 C   0  0  0  0  0  0  0  0  0  0  0  0
   24.2405   24.0848   35.2544 C   0  0  0  0  0  0  0  0  0  0  0  0
  1  2  1  0
  2  3  2  0
  2  4  1  0
  4  5  2  0
  5  6  1  0
  6  7  2  0
  7  8  1  0
  8  9  2  0
  9 10  1  0
 10 11  2  0
 11 12  1  0
 12 13  2  0
 13 14  1  0
  1 15  1  0
 15 16  2  0
 16 17  1  0
 17 18  2  0
 18 19  1  0
 19 20  1  0
 20 21  1  0
 21 22  1  0
 20 23  1  0
 23 24  1  0
 24 25  1  0
 25 26  1  0
 26 27  2  0
 13  4  1  0
 27 15  1  0
 12  7  1  0
 26 18  1  0
M  END
>  <AAScore>  (1) 
7477.234526248991

>  <RootName>  (1) 
./4ZLY/04_DeltaGEst/trajectory_03/rank_00/lead_0418

$$$$
