confid_15
     RDKit          3D

 27 30  0  0  0  0  0  0  0  0999 V2000
   24.4800   26.1000   36.1300 N   0  0  0  0  0  0  0  0  0  0  0  0
   25.2500   26.2500   34.9900 C   0  0  0  0  0  0  0  0  0  0  0  0
   24.7400   25.7600   33.9900 O   0  0  0  0  0  0  0  0  0  0  0  0
   26.5900   26.8900   34.9600 C   0  0  0  0  0  0  0  0  0  0  0  0
   27.0600   27.2400   36.1600 N   0  0  0  0  0  0  0  0  0  0  0  0
   28.3000   27.7100   36.2400 N   0  0  0  0  0  0  0  0  0  0  0  0
   29.0500   27.9600   35.1500 C   0  0  0  0  0  0  0  0  0  0  0  0
   30.3400   28.4900   35.2600 C   0  0  0  0  0  0  0  0  0  0  0  0
   31.1100   28.8200   34.1400 C   0  0  0  0  0  0  0  0  0  0  0  0
   30.5200   28.6700   32.8800 C   0  0  0  0  0  0  0  0  0  0  0  0
   29.2900   28.0200   32.7700 C   0  0  0  0  0  0  0  0  0  0  0  0
   28.5200   27.7100   33.8900 C   0  0  0  0  0  0  0  0  0  0  0  0
   27.2700   27.0800   33.7600 C   0  0  0  0  0  0  0  0  0  0  0  0
   26.7500   26.8800   32.4900 N   0  0  0  0  0  0  0  0  0  0  0  0
   23.5085   25.0514   36.3340 C   0  0  0  0  0  0  0  0  0  0  0  0
   23.5506   23.9245   35.5711 N   0  0  0  0  0  0  0  0  0  0  0  0
   22.6734   22.9014   35.7401 C   0  0  0  0  0  0  0  0  0  0  0  0
   22.8032   21.6710   34.8827 C   0  0  0  0  0  0  0  0  0  0  0  0
   21.5622   20.8737   34.8378 N   0  0  0  0  0  0  0  0  0  0  0  0
   20.5493   21.4747   33.9527 C   0  0  0  0  0  0  0  0  0  0  0  0
   21.0473   20.6055   36.1952 C   0  0  0  0  0  0  0  0  0  0  0  0
   20.6815   21.8980   36.9614 C   0  0  2  0  0  0  0  0  0  0  0  0
   21.7175   22.9816   36.7650 C   0  0  0  0  0  0  0  0  0  0  0  0
   21.6606   24.1128   37.5180 N   0  0  0  0  0  0  0  0  0  0  0  0
   22.5252   25.1471   37.3407 C   0  0  0  0  0  0  0  0  0  0  0  0
   22.3996   26.3533   38.2217 C   0  0  0  0  0  0  0  0  0  0  0  0
   20.4823   21.5882   38.4510 C   0  0  0  0  0  0  0  0  0  0  0  0
  1  2  1  0
  2  3  2  0
  2  4  1  0
  4  5  2  0
  5  6  1  0
  6  7  2  0
  7  8  1  0
  8  9  2  0
  9 10  1  0
 10 11  2  0
 11 12  1  0
 12 13  2  0
 13 14  1  0
  1 15  1  0
 15 16  2  0
 16 17  1  0
 17 18  1  0
 18 19  1  0
 19 20  1  0
 19 21  1  0
 21 22  1  0
 22 23  1  0
 23 24  1  0
 24 25  2  0
 25 26  1  0
 22 27  1  1
 13  4  1  0
 25 15  1  0
 12  7  1  0
 23 17  2  0
M  END
>  <AAScore>  (1) 
336.5617825392408

>  <RootName>  (1) 
./4ZLY/04_DeltaGEst/trajectory_00/rank_01/lead_0238

$$$$
