confid_11
     RDKit          3D

 30 33  0  0  0  0  0  0  0  0999 V2000
   24.5500   26.3900   36.2500 N   0  0  0  0  0  0  0  0  0  0  0  0
   25.6000   26.1300   35.4000 C   0  0  0  0  0  0  0  0  0  0  0  0
   25.4300   25.4300   34.4200 O   0  0  0  0  0  0  0  0  0  0  0  0
   26.9800   26.6300   35.7100 C   0  0  0  0  0  0  0  0  0  0  0  0
   27.3200   26.8200   36.9800 N   0  0  0  0  0  0  0  0  0  0  0  0
   28.4700   27.4000   37.3100 N   0  0  0  0  0  0  0  0  0  0  0  0
   29.4000   27.6300   36.3700 C   0  0  0  0  0  0  0  0  0  0  0  0
   30.6600   28.0500   36.8000 C   0  0  0  0  0  0  0  0  0  0  0  0
   31.5700   28.3600   35.7800 C   0  0  0  0  0  0  0  0  0  0  0  0
   31.3700   28.1000   34.4300 C   0  0  0  0  0  0  0  0  0  0  0  0
   30.1200   27.5900   34.0500 C   0  0  0  0  0  0  0  0  0  0  0  0
   29.1500   27.3400   35.0300 C   0  0  0  0  0  0  0  0  0  0  0  0
   27.8800   26.8900   34.6600 C   0  0  0  0  0  0  0  0  0  0  0  0
   27.4800   26.6100   33.3700 N   0  0  0  0  0  0  0  0  0  0  0  0
   23.2352   25.7475   36.1218 C   0  0  0  0  0  0  0  0  0  0  0  0
   23.2439   24.3696   36.8420 C   0  0  0  0  0  0  0  0  0  0  0  0
   22.0848   24.1874   37.8308 C   0  0  0  0  0  0  0  0  0  0  0  0
   20.8251   24.6596   37.2337 N   0  0  0  0  0  0  0  0  0  0  0  0
   19.5947   23.9232   37.3833 C   0  0  0  0  0  0  0  0  0  0  0  0
   18.5260   24.5462   37.6268 O   0  0  0  0  0  0  0  0  0  0  0  0
   19.5227   22.4387   37.1323 C   0  0  0  0  0  0  0  0  0  0  0  0
   19.6387   22.1283   35.6328 C   0  0  0  0  0  0  0  0  0  0  0  0
   18.4292   22.5511   34.9141 N   0  0  0  0  0  0  0  0  0  0  0  0
   17.2424   21.9055   34.8195 C   0  0  0  0  0  0  0  0  0  0  0  0
   16.9534   20.5588   35.4054 C   0  0  0  0  0  0  0  0  0  0  0  0
   16.3102   22.6238   34.1565 N   0  0  0  0  0  0  0  0  0  0  0  0
   16.9490   23.7636   33.8176 C   0  0  0  0  0  0  0  0  0  0  0  0
   18.2459   23.7263   34.2854 C   0  0  0  0  0  0  0  0  0  0  0  0
   20.7680   26.0041   36.6361 C   0  0  0  0  0  0  0  0  0  0  0  0
   22.1379   26.6939   36.6505 C   0  0  0  0  0  0  0  0  0  0  0  0
  1  2  1  0
  2  3  2  0
  2  4  1  0
  4  5  2  0
  5  6  1  0
  6  7  2  0
  7  8  1  0
  8  9  2  0
  9 10  1  0
 10 11  2  0
 11 12  1  0
 12 13  2  0
 13 14  1  0
  1 15  1  0
 15 16  1  0
 16 17  1  0
 17 18  1  0
 18 19  1  0
 19 20  2  0
 19 21  1  0
 21 22  1  0
 22 23  1  0
 23 24  1  0
 24 25  1  0
 24 26  2  0
 26 27  1  0
 27 28  2  0
 18 29  1  0
 29 30  1  0
 13  4  1  0
 30 15  1  0
 12  7  1  0
 28 23  1  0
M  END
>  <AAScore>  (1) 
1209.5861022488034

>  <RootName>  (1) 
./4ZLY/04_DeltaGEst/trajectory_01/rank_00/lead_0155

$$$$
