confid_1
     RDKit          3D

 27 30  0  0  0  0  0  0  0  0999 V2000
   25.3300   26.2600   34.7600 N   0  0  0  0  0  0  0  0  0  0  0  0
   26.1200   25.9200   33.6900 C   0  0  0  0  0  0  0  0  0  0  0  0
   25.6300   25.1100   32.9400 O   0  0  0  0  0  0  0  0  0  0  0  0
   27.5200   26.3800   33.4600 C   0  0  0  0  0  0  0  0  0  0  0  0
   28.1600   26.6300   34.6100 N   0  0  0  0  0  0  0  0  0  0  0  0
   29.4800   26.8500   34.5700 N   0  0  0  0  0  0  0  0  0  0  0  0
   30.1900   26.7800   33.4400 C   0  0  0  0  0  0  0  0  0  0  0  0
   31.5600   27.0500   33.5000 C   0  0  0  0  0  0  0  0  0  0  0  0
   32.2700   27.2400   32.3100 C   0  0  0  0  0  0  0  0  0  0  0  0
   31.6100   27.2500   31.0800 C   0  0  0  0  0  0  0  0  0  0  0  0
   30.2700   26.8700   31.0600 C   0  0  0  0  0  0  0  0  0  0  0  0
   29.5100   26.6900   32.2300 C   0  0  0  0  0  0  0  0  0  0  0  0
   28.1400   26.4100   32.2000 C   0  0  0  0  0  0  0  0  0  0  0  0
   27.4300   26.1300   31.0500 N   0  0  0  0  0  0  0  0  0  0  0  0
   23.8907   26.2720   34.7569 C   0  0  0  0  0  0  0  0  0  0  0  0
   23.2125   26.5059   35.8330 N   0  0  0  0  0  0  0  0  0  0  0  0
   21.8374   26.5097   35.4723 C   0  0  0  0  0  0  0  0  0  0  0  0
   21.6861   26.2648   34.1781 C   0  0  0  0  0  0  0  0  0  0  0  0
   20.7678   27.0222   33.2970 C   0  0  0  0  0  0  0  0  0  0  0  0
   21.6612   27.5395   32.2666 N   0  0  0  0  0  0  0  0  0  0  0  0
   21.2426   28.4359   31.2227 C   0  0  0  0  0  0  0  0  0  0  0  0
   22.0913   28.8960   30.4119 O   0  0  0  0  0  0  0  0  0  0  0  0
   19.8087   28.8460   31.0873 C   0  0  0  0  0  0  0  0  0  0  0  0
   23.0485   27.0952   32.4379 C   0  0  0  0  0  0  0  0  0  0  0  0
   23.5126   26.5188   31.2676 F   0  0  0  0  0  0  0  0  0  0  0  0
   23.8473   28.1771   32.7732 F   0  0  0  0  0  0  0  0  0  0  0  0
   23.0091   26.0456   33.5611 C   0  0  1  0  0  0  0  0  0  0  0  0
  1  2  1  0
  2  3  2  0
  2  4  1  0
  4  5  2  0
  5  6  1  0
  6  7  2  0
  7  8  1  0
  8  9  2  0
  9 10  1  0
 10 11  2  0
 11 12  1  0
 12 13  2  0
 13 14  1  0
  1 15  1  0
 15 16  2  0
 16 17  1  0
 17 18  2  0
 18 19  1  0
 19 20  1  0
 20 21  1  0
 21 22  2  0
 21 23  1  0
 20 24  1  0
 24 25  1  0
 24 26  1  0
 27 24  1  6
 13  4  1  0
 27 15  1  0
 12  7  1  0
 27 18  1  0
M  END
>  <AAScore>  (1) 
1309.3495084184422

>  <RootName>  (1) 
./4ZLY/04_DeltaGEst/trajectory_03/rank_00/lead_0175

$$$$
