confid_8
     RDKit          3D

 28 31  0  0  0  0  0  0  0  0999 V2000
   25.3300   26.2600   34.7600 N   0  0  0  0  0  0  0  0  0  0  0  0
   26.1200   25.9200   33.6900 C   0  0  0  0  0  0  0  0  0  0  0  0
   25.6300   25.1100   32.9400 O   0  0  0  0  0  0  0  0  0  0  0  0
   27.5200   26.3800   33.4600 C   0  0  0  0  0  0  0  0  0  0  0  0
   28.1600   26.6300   34.6100 N   0  0  0  0  0  0  0  0  0  0  0  0
   29.4800   26.8500   34.5700 N   0  0  0  0  0  0  0  0  0  0  0  0
   30.1900   26.7800   33.4400 C   0  0  0  0  0  0  0  0  0  0  0  0
   31.5600   27.0500   33.5000 C   0  0  0  0  0  0  0  0  0  0  0  0
   32.2700   27.2400   32.3100 C   0  0  0  0  0  0  0  0  0  0  0  0
   31.6100   27.2500   31.0800 C   0  0  0  0  0  0  0  0  0  0  0  0
   30.2700   26.8700   31.0600 C   0  0  0  0  0  0  0  0  0  0  0  0
   29.5100   26.6900   32.2300 C   0  0  0  0  0  0  0  0  0  0  0  0
   28.1400   26.4100   32.2000 C   0  0  0  0  0  0  0  0  0  0  0  0
   27.4300   26.1300   31.0500 N   0  0  0  0  0  0  0  0  0  0  0  0
   26.5167   27.1348   30.4951 C   0  0  0  0  0  0  0  0  0  0  0  0
   26.6541   27.1764   28.9707 C   0  0  0  0  0  0  0  0  0  0  0  0
   26.6112   25.8256   28.3858 N   0  0  0  0  0  0  0  0  0  0  0  0
   26.3655   25.6769   26.9741 C   0  0  0  0  0  0  0  0  0  0  0  0
   25.3015   24.8799   26.5230 C   0  0  0  0  0  0  0  0  0  0  0  0
   25.0620   24.7516   25.1481 C   0  0  0  0  0  0  0  0  0  0  0  0
   23.9495   23.8811   24.6446 C   0  0  0  0  0  0  0  0  0  0  0  0
   24.3932   22.5580   24.5200 O   0  0  0  0  0  0  0  0  0  0  0  0
   25.8789   25.3799   24.2600 N   0  0  0  0  0  0  0  0  0  0  0  0
   26.9188   26.1541   24.6664 C   0  0  0  0  0  0  0  0  0  0  0  0
   27.1823   26.3193   26.0281 C   0  0  0  0  0  0  0  0  0  0  0  0
   28.2490   27.0628   26.4129 F   0  0  0  0  0  0  0  0  0  0  0  0
   26.5869   24.6410   29.2555 C   0  0  0  0  0  0  0  0  0  0  0  0
   27.5707   24.8104   30.4175 C   0  0  0  0  0  0  0  0  0  0  0  0
  1  2  1  0
  2  3  2  0
  2  4  1  0
  4  5  2  0
  5  6  1  0
  6  7  2  0
  7  8  1  0
  8  9  2  0
  9 10  1  0
 10 11  2  0
 11 12  1  0
 12 13  2  0
 13 14  1  0
 14 15  1  0
 15 16  1  0
 16 17  1  0
 17 18  1  0
 18 19  2  0
 19 20  1  0
 20 21  1  0
 21 22  1  0
 20 23  2  0
 23 24  1  0
 24 25  2  0
 25 26  1  0
 17 27  1  0
 27 28  1  0
 13  4  1  0
 28 14  1  0
 12  7  1  0
 25 18  1  0
M  END
>  <AAScore>  (1) 
2.088467824406195

>  <RootName>  (1) 
./4ZLY/04_DeltaGEst/trajectory_03/rank_01/lead_0195

$$$$
