confid_8
     RDKit          3D

 30 34  0  0  0  0  0  0  0  0999 V2000
   25.3300   26.2600   34.7600 N   0  0  0  0  0  0  0  0  0  0  0  0
   26.1200   25.9200   33.6900 C   0  0  0  0  0  0  0  0  0  0  0  0
   25.6300   25.1100   32.9400 O   0  0  0  0  0  0  0  0  0  0  0  0
   27.5200   26.3800   33.4600 C   0  0  0  0  0  0  0  0  0  0  0  0
   28.1600   26.6300   34.6100 N   0  0  0  0  0  0  0  0  0  0  0  0
   29.4800   26.8500   34.5700 N   0  0  0  0  0  0  0  0  0  0  0  0
   30.1900   26.7800   33.4400 C   0  0  0  0  0  0  0  0  0  0  0  0
   31.5600   27.0500   33.5000 C   0  0  0  0  0  0  0  0  0  0  0  0
   32.2700   27.2400   32.3100 C   0  0  0  0  0  0  0  0  0  0  0  0
   31.6100   27.2500   31.0800 C   0  0  0  0  0  0  0  0  0  0  0  0
   30.2700   26.8700   31.0600 C   0  0  0  0  0  0  0  0  0  0  0  0
   29.5100   26.6900   32.2300 C   0  0  0  0  0  0  0  0  0  0  0  0
   28.1400   26.4100   32.2000 C   0  0  0  0  0  0  0  0  0  0  0  0
   27.4300   26.1300   31.0500 N   0  0  0  0  0  0  0  0  0  0  0  0
   26.5401   27.1704   30.5027 C   0  0  0  0  0  0  0  0  0  0  0  0
   25.7032   26.6486   29.3306 C   0  0  0  0  0  0  0  0  0  0  0  0
   26.5623   25.9423   28.3773 N   0  0  0  0  0  0  0  0  0  0  0  0
   27.4819   24.9724   28.9026 C   0  0  0  0  0  0  0  0  0  0  0  0
   28.1512   24.2321   28.1324 O   0  0  0  0  0  0  0  0  0  0  0  0
   27.6213   24.8281   30.3870 C   0  0  0  0  0  0  0  0  0  0  0  0
   26.4607   26.1943   26.9355 C   0  0  0  0  0  0  0  0  0  0  0  0
   25.6054   25.1421   26.2856 C   0  0  0  0  0  0  0  0  0  0  0  0
   24.1971   25.1717   26.4542 C   0  0  0  0  0  0  0  0  0  0  0  0
   23.3872   24.1779   25.8752 C   0  0  0  0  0  0  0  0  0  0  0  0
   24.0141   23.1741   25.1439 C   0  0  0  0  0  0  0  0  0  0  0  0
   23.4418   22.1001   24.4901 O   0  0  0  0  0  0  0  0  0  0  0  0
   24.4948   21.3403   23.8804 C   0  0  0  0  0  0  0  0  0  0  0  0
   25.7024   22.0365   24.2199 O   0  0  0  0  0  0  0  0  0  0  0  0
   25.3608   23.1364   24.9827 C   0  0  0  0  0  0  0  0  0  0  0  0
   26.1982   24.0997   25.5380 C   0  0  0  0  0  0  0  0  0  0  0  0
  1  2  1  0
  2  3  2  0
  2  4  1  0
  4  5  2  0
  5  6  1  0
  6  7  2  0
  7  8  1  0
  8  9  2  0
  9 10  1  0
 10 11  2  0
 11 12  1  0
 12 13  2  0
 13 14  1  0
 14 15  1  0
 15 16  1  0
 16 17  1  0
 17 18  1  0
 18 19  2  0
 18 20  1  0
 17 21  1  0
 21 22  1  0
 22 23  2  0
 23 24  1  0
 24 25  2  0
 25 26  1  0
 26 27  1  0
 27 28  1  0
 28 29  1  0
 29 30  2  0
 13  4  1  0
 20 14  1  0
 30 22  1  0
 12  7  1  0
 29 25  1  0
M  END
>  <AAScore>  (1) 
183.35069157395628

>  <RootName>  (1) 
./4ZLY/04_DeltaGEst/trajectory_03/rank_01/lead_0188

$$$$
