confid_18
     RDKit          3D

 30 33  0  0  0  0  0  0  0  0999 V2000
   25.3300   26.2600   34.7600 N   0  0  0  0  0  0  0  0  0  0  0  0
   26.1200   25.9200   33.6900 C   0  0  0  0  0  0  0  0  0  0  0  0
   25.6300   25.1100   32.9400 O   0  0  0  0  0  0  0  0  0  0  0  0
   27.5200   26.3800   33.4600 C   0  0  0  0  0  0  0  0  0  0  0  0
   28.1600   26.6300   34.6100 N   0  0  0  0  0  0  0  0  0  0  0  0
   29.4800   26.8500   34.5700 N   0  0  0  0  0  0  0  0  0  0  0  0
   30.1900   26.7800   33.4400 C   0  0  0  0  0  0  0  0  0  0  0  0
   31.5600   27.0500   33.5000 C   0  0  0  0  0  0  0  0  0  0  0  0
   32.2700   27.2400   32.3100 C   0  0  0  0  0  0  0  0  0  0  0  0
   31.6100   27.2500   31.0800 C   0  0  0  0  0  0  0  0  0  0  0  0
   30.2700   26.8700   31.0600 C   0  0  0  0  0  0  0  0  0  0  0  0
   29.5100   26.6900   32.2300 C   0  0  0  0  0  0  0  0  0  0  0  0
   28.1400   26.4100   32.2000 C   0  0  0  0  0  0  0  0  0  0  0  0
   27.4300   26.1300   31.0500 N   0  0  0  0  0  0  0  0  0  0  0  0
   27.5857   24.8158   30.4087 C   0  0  0  0  0  0  0  0  0  0  0  0
   26.7226   24.7119   29.1493 C   0  0  0  0  0  0  0  0  0  0  0  0
   26.8728   25.9325   28.3449 N   0  0  0  0  0  0  0  0  0  0  0  0
   27.1530   25.8829   26.9317 C   0  0  0  0  0  0  0  0  0  0  0  0
   26.6699   26.7668   26.1729 O   0  0  0  0  0  0  0  0  0  0  0  0
   28.0638   24.8411   26.3358 C   0  0  0  0  0  0  0  0  0  0  0  0
   29.4119   24.8406   27.0190 C   0  0  0  0  0  0  0  0  0  0  0  0
   30.2305   25.9868   26.9666 C   0  0  0  0  0  0  0  0  0  0  0  0
   29.8257   27.0952   26.2958 F   0  0  0  0  0  0  0  0  0  0  0  0
   31.4729   25.9962   27.6069 C   0  0  0  0  0  0  0  0  0  0  0  0
   31.9129   24.8688   28.3024 C   0  0  0  0  0  0  0  0  0  0  0  0
   31.1180   23.7223   28.3479 C   0  0  0  0  0  0  0  0  0  0  0  0
   29.8768   23.6993   27.7038 C   0  0  0  0  0  0  0  0  0  0  0  0
   29.1346   22.5643   27.7528 F   0  0  0  0  0  0  0  0  0  0  0  0
   26.7064   27.2486   28.9822 C   0  0  0  0  0  0  0  0  0  0  0  0
   26.5057   27.1286   30.4984 C   0  0  0  0  0  0  0  0  0  0  0  0
  1  2  1  0
  2  3  2  0
  2  4  1  0
  4  5  2  0
  5  6  1  0
  6  7  2  0
  7  8  1  0
  8  9  2  0
  9 10  1  0
 10 11  2  0
 11 12  1  0
 12 13  2  0
 13 14  1  0
 14 15  1  0
 15 16  1  0
 16 17  1  0
 17 18  1  0
 18 19  2  0
 18 20  1  0
 20 21  1  0
 21 22  2  0
 22 23  1  0
 22 24  1  0
 24 25  2  0
 25 26  1  0
 26 27  2  0
 27 28  1  0
 17 29  1  0
 29 30  1  0
 13  4  1  0
 30 14  1  0
 12  7  1  0
 27 21  1  0
M  END
>  <AAScore>  (1) 
0.8298450743837346

>  <RootName>  (1) 
./4ZLY/04_DeltaGEst/trajectory_03/rank_01/lead_0383

$$$$
