confid_15
     RDKit          3D

 27 30  0  0  0  0  0  0  0  0999 V2000
   24.5700   26.8800   35.5900 N   0  0  0  0  0  0  0  0  0  0  0  0
   25.5000   26.4000   34.6900 C   0  0  0  0  0  0  0  0  0  0  0  0
   25.1700   25.5200   33.9100 O   0  0  0  0  0  0  0  0  0  0  0  0
   26.8400   27.0200   34.7400 C   0  0  0  0  0  0  0  0  0  0  0  0
   27.3800   27.2800   35.9400 N   0  0  0  0  0  0  0  0  0  0  0  0
   28.6200   27.7400   36.0300 N   0  0  0  0  0  0  0  0  0  0  0  0
   29.3800   28.0000   34.9600 C   0  0  0  0  0  0  0  0  0  0  0  0
   30.6700   28.5000   35.1300 C   0  0  0  0  0  0  0  0  0  0  0  0
   31.5400   28.6100   34.0300 C   0  0  0  0  0  0  0  0  0  0  0  0
   31.0900   28.2200   32.7700 C   0  0  0  0  0  0  0  0  0  0  0  0
   29.8000   27.7000   32.6000 C   0  0  0  0  0  0  0  0  0  0  0  0
   28.9600   27.5500   33.7100 C   0  0  0  0  0  0  0  0  0  0  0  0
   27.6600   27.0300   33.5900 C   0  0  0  0  0  0  0  0  0  0  0  0
   27.1600   26.7400   32.3400 N   0  0  0  0  0  0  0  0  0  0  0  0
   23.1455   26.7389   35.4487 C   0  0  0  0  0  0  0  0  0  0  0  0
   22.3383   27.0177   36.4220 N   0  0  0  0  0  0  0  0  0  0  0  0
   21.0155   26.8299   35.9380 C   0  0  0  0  0  0  0  0  0  0  0  0
   21.0298   26.4289   34.6783 C   0  0  0  0  0  0  0  0  0  0  0  0
   19.9059   26.5535   33.7057 C   0  0  0  0  0  0  0  0  0  0  0  0
   20.3509   26.2156   32.4005 O   0  0  0  0  0  0  0  0  0  0  0  0
   21.4581   27.0014   31.9299 C   0  0  2  0  0  0  0  0  0  0  0  0
   20.9305   28.3256   31.3368 C   0  0  0  0  0  0  0  0  0  0  0  0
   22.1275   26.1857   30.8010 C   0  0  0  0  0  0  0  0  0  0  0  0
   21.1717   25.8408   29.8176 O   0  0  0  0  0  0  0  0  0  0  0  0
   21.7973   25.0979   28.7956 C   0  0  0  0  0  0  0  0  0  0  0  0
   22.5464   27.3021   33.0307 C   0  0  0  0  0  0  0  0  0  0  0  0
   22.4205   26.3214   34.1987 C   0  0  1  0  0  0  0  0  0  0  0  0
  1  2  1  0
  2  3  2  0
  2  4  1  0
  4  5  2  0
  5  6  1  0
  6  7  2  0
  7  8  1  0
  8  9  2  0
  9 10  1  0
 10 11  2  0
 11 12  1  0
 12 13  2  0
 13 14  1  0
  1 15  1  0
 15 16  2  0
 16 17  1  0
 17 18  2  0
 18 19  1  0
 19 20  1  0
 20 21  1  0
 21 22  1  6
 21 23  1  0
 23 24  1  0
 24 25  1  0
 21 26  1  0
 27 26  1  6
 13  4  1  0
 27 15  1  0
 12  7  1  0
 27 18  1  0
M  END
>  <AAScore>  (1) 
1183.8146796479357

>  <RootName>  (1) 
./4ZLY/04_DeltaGEst/trajectory_05/rank_00/lead_0184

$$$$
