confid_6
     RDKit          3D

 28 30  0  0  0  0  0  0  0  0999 V2000
   24.4800   26.1000   36.1300 N   0  0  0  0  0  0  0  0  0  0  0  0
   25.2500   26.2500   34.9900 C   0  0  0  0  0  0  0  0  0  0  0  0
   24.7400   25.7600   33.9900 O   0  0  0  0  0  0  0  0  0  0  0  0
   26.5900   26.8900   34.9600 C   0  0  0  0  0  0  0  0  0  0  0  0
   27.0600   27.2400   36.1600 N   0  0  0  0  0  0  0  0  0  0  0  0
   28.3000   27.7100   36.2400 N   0  0  0  0  0  0  0  0  0  0  0  0
   29.0500   27.9600   35.1500 C   0  0  0  0  0  0  0  0  0  0  0  0
   30.3400   28.4900   35.2600 C   0  0  0  0  0  0  0  0  0  0  0  0
   31.1100   28.8200   34.1400 C   0  0  0  0  0  0  0  0  0  0  0  0
   30.5200   28.6700   32.8800 C   0  0  0  0  0  0  0  0  0  0  0  0
   29.2900   28.0200   32.7700 C   0  0  0  0  0  0  0  0  0  0  0  0
   28.5200   27.7100   33.8900 C   0  0  0  0  0  0  0  0  0  0  0  0
   27.2700   27.0800   33.7600 C   0  0  0  0  0  0  0  0  0  0  0  0
   26.7500   26.8800   32.4900 N   0  0  0  0  0  0  0  0  0  0  0  0
   23.5106   25.0538   36.3460 C   0  0  0  0  0  0  0  0  0  0  0  0
   23.6926   23.7663   35.8153 C   0  0  0  0  0  0  0  0  0  0  0  0
   22.7537   22.7483   36.0504 C   0  0  0  0  0  0  0  0  0  0  0  0
   23.0573   21.1369   35.3712 S   0  0  0  0  0  6  0  0  0  0  0  0
   24.4125   21.1007   34.7188 O   0  0  0  0  0  0  0  0  0  0  0  0
   22.0181   20.8456   34.3252 O   0  0  0  0  0  0  0  0  0  0  0  0
   22.9903   19.9280   36.6297 N   0  0  0  0  0  0  0  0  0  0  0  0
   23.2155   18.6010   36.0445 C   0  0  0  0  0  0  0  0  0  0  0  0
   24.0129   20.2171   37.6426 C   0  0  0  0  0  0  0  0  0  0  0  0
   21.6053   23.0256   36.8346 C   0  0  0  0  0  0  0  0  0  0  0  0
   21.4558   24.3063   37.4020 C   0  0  0  0  0  0  0  0  0  0  0  0
   20.3962   24.5943   38.2011 F   0  0  0  0  0  0  0  0  0  0  0  0
   22.4004   25.3046   37.1589 C   0  0  0  0  0  0  0  0  0  0  0  0
   20.5800   21.9601   37.1340 C   0  0  0  0  0  0  0  0  0  0  0  0
  1  2  1  0
  2  3  2  0
  2  4  1  0
  4  5  2  0
  5  6  1  0
  6  7  2  0
  7  8  1  0
  8  9  2  0
  9 10  1  0
 10 11  2  0
 11 12  1  0
 12 13  2  0
 13 14  1  0
  1 15  1  0
 15 16  2  0
 16 17  1  0
 17 18  1  0
 18 19  2  0
 18 20  2  0
 18 21  1  0
 21 22  1  0
 21 23  1  0
 17 24  2  0
 24 25  1  0
 25 26  1  0
 25 27  2  0
 24 28  1  0
 13  4  1  0
 27 15  1  0
 12  7  1  0
M  END
>  <AAScore>  (1) 
1513.2749113023283

>  <RootName>  (1) 
./4ZLY/04_DeltaGEst/trajectory_00/rank_00/lead_0351

$$$$
