confid_10
     RDKit          3D

 27 29  0  0  0  0  0  0  0  0999 V2000
   24.5700   26.8800   35.5900 N   0  0  0  0  0  0  0  0  0  0  0  0
   25.5000   26.4000   34.6900 C   0  0  0  0  0  0  0  0  0  0  0  0
   25.1700   25.5200   33.9100 O   0  0  0  0  0  0  0  0  0  0  0  0
   26.8400   27.0200   34.7400 C   0  0  0  0  0  0  0  0  0  0  0  0
   27.3800   27.2800   35.9400 N   0  0  0  0  0  0  0  0  0  0  0  0
   28.6200   27.7400   36.0300 N   0  0  0  0  0  0  0  0  0  0  0  0
   29.3800   28.0000   34.9600 C   0  0  0  0  0  0  0  0  0  0  0  0
   30.6700   28.5000   35.1300 C   0  0  0  0  0  0  0  0  0  0  0  0
   31.5400   28.6100   34.0300 C   0  0  0  0  0  0  0  0  0  0  0  0
   31.0900   28.2200   32.7700 C   0  0  0  0  0  0  0  0  0  0  0  0
   29.8000   27.7000   32.6000 C   0  0  0  0  0  0  0  0  0  0  0  0
   28.9600   27.5500   33.7100 C   0  0  0  0  0  0  0  0  0  0  0  0
   27.6600   27.0300   33.5900 C   0  0  0  0  0  0  0  0  0  0  0  0
   27.1600   26.7400   32.3400 N   0  0  0  0  0  0  0  0  0  0  0  0
   33.1746   29.2443   34.2405 S   0  0  0  0  0  6  0  0  0  0  0  0
   34.0792   28.6205   33.2143 O   0  0  0  0  0  0  0  0  0  0  0  0
   33.6776   28.8394   35.5983 O   0  0  0  0  0  0  0  0  0  0  0  0
   33.2346   30.9909   34.0778 N   0  0  0  0  0  0  0  0  0  0  0  0
   32.5959   31.4405   32.8258 C   0  0  0  0  0  0  0  0  0  0  0  0
   32.8741   32.7810   32.6219 F   0  0  0  0  0  0  0  0  0  0  0  0
   33.0990   30.7384   31.7446 F   0  0  0  0  0  0  0  0  0  0  0  0
   31.2214   31.2732   32.8794 F   0  0  0  0  0  0  0  0  0  0  0  0
   32.6568   31.6612   35.2637 C   0  0  0  0  0  0  0  0  0  0  0  0
   33.7591   32.0356   36.2587 C   0  0  0  0  0  0  0  0  0  0  0  0
   34.7469   33.0328   35.6348 C   0  0  0  0  0  0  0  0  0  0  0  0
   34.3724   34.5008   35.7700 C   0  0  0  0  0  0  0  0  0  0  0  0
   35.4844   33.9170   36.6285 C   0  0  0  0  0  0  0  0  0  0  0  0
  1  2  1  0
  2  3  2  0
  2  4  1  0
  4  5  2  0
  5  6  1  0
  6  7  2  0
  7  8  1  0
  8  9  2  0
  9 10  1  0
 10 11  2  0
 11 12  1  0
 12 13  2  0
 13 14  1  0
  9 15  1  0
 15 16  2  0
 15 17  2  0
 15 18  1  0
 18 19  1  0
 19 20  1  0
 19 21  1  0
 19 22  1  0
 18 23  1  0
 23 24  1  0
 24 25  1  0
 25 26  1  0
 26 27  1  0
 13  4  1  0
 27 25  1  0
 12  7  1  0
M  END
>  <AAScore>  (1) 
-5.831924337893952

>  <RootName>  (1) 
./4ZLY/04_DeltaGEst/trajectory_05/rank_01/lead_0070

$$$$
