confid_3
     RDKit          3D

 27 30  0  0  0  0  0  0  0  0999 V2000
   24.5500   26.3900   36.2500 N   0  0  0  0  0  0  0  0  0  0  0  0
   25.6000   26.1300   35.4000 C   0  0  0  0  0  0  0  0  0  0  0  0
   25.4300   25.4300   34.4200 O   0  0  0  0  0  0  0  0  0  0  0  0
   26.9800   26.6300   35.7100 C   0  0  0  0  0  0  0  0  0  0  0  0
   27.3200   26.8200   36.9800 N   0  0  0  0  0  0  0  0  0  0  0  0
   28.4700   27.4000   37.3100 N   0  0  0  0  0  0  0  0  0  0  0  0
   29.4000   27.6300   36.3700 C   0  0  0  0  0  0  0  0  0  0  0  0
   30.6600   28.0500   36.8000 C   0  0  0  0  0  0  0  0  0  0  0  0
   31.5700   28.3600   35.7800 C   0  0  0  0  0  0  0  0  0  0  0  0
   31.3700   28.1000   34.4300 C   0  0  0  0  0  0  0  0  0  0  0  0
   30.1200   27.5900   34.0500 C   0  0  0  0  0  0  0  0  0  0  0  0
   29.1500   27.3400   35.0300 C   0  0  0  0  0  0  0  0  0  0  0  0
   27.8800   26.8900   34.6600 C   0  0  0  0  0  0  0  0  0  0  0  0
   27.4800   26.6100   33.3700 N   0  0  0  0  0  0  0  0  0  0  0  0
   23.2283   25.8224   36.1358 C   0  0  0  0  0  0  0  0  0  0  0  0
   22.9604   24.8613   35.2057 N   0  0  0  0  0  0  0  0  0  0  0  0
   21.7288   24.3034   35.0691 C   0  0  0  0  0  0  0  0  0  0  0  0
   20.6808   24.7138   35.8978 C   0  0  0  0  0  0  0  0  0  0  0  0
   19.3102   24.1038   35.7920 C   0  0  0  0  0  0  0  0  0  0  0  0
   18.3380   24.9636   36.4996 N   0  0  0  0  0  0  0  0  0  0  0  0
   17.0050   24.3420   36.5532 C   0  0  0  0  0  0  0  0  0  0  0  0
   16.2555   24.5428   35.2385 C   0  0  0  0  0  0  0  0  0  0  0  0
   18.7721   25.1244   37.7867 O   0  0  0  0  0  0  0  0  0  0  0  0
   19.7805   26.1147   37.7621 C   0  0  0  0  0  0  0  0  0  0  0  0
   20.9279   25.6737   36.8878 C   0  0  0  0  0  0  0  0  0  0  0  0
   22.2020   26.2476   36.9983 C   0  0  0  0  0  0  0  0  0  0  0  0
   22.4377   27.2069   37.9303 F   0  0  0  0  0  0  0  0  0  0  0  0
  1  2  1  0
  2  3  2  0
  2  4  1  0
  4  5  2  0
  5  6  1  0
  6  7  2  0
  7  8  1  0
  8  9  2  0
  9 10  1  0
 10 11  2  0
 11 12  1  0
 12 13  2  0
 13 14  1  0
  1 15  1  0
 15 16  2  0
 16 17  1  0
 17 18  2  0
 18 19  1  0
 19 20  1  0
 20 21  1  0
 21 22  1  0
 20 23  1  0
 23 24  1  0
 24 25  1  0
 25 26  2  0
 26 27  1  0
 13  4  1  0
 26 15  1  0
 12  7  1  0
 25 18  1  0
M  END
>  <AAScore>  (1) 
3544.7811731732304

>  <RootName>  (1) 
./4ZLY/04_DeltaGEst/trajectory_01/rank_00/lead_0451

$$$$
