confid_14
     RDKit          3D

 29 32  0  0  0  0  0  0  0  0999 V2000
   24.5700   26.8800   35.5900 N   0  0  0  0  0  0  0  0  0  0  0  0
   25.5000   26.4000   34.6900 C   0  0  0  0  0  0  0  0  0  0  0  0
   25.1700   25.5200   33.9100 O   0  0  0  0  0  0  0  0  0  0  0  0
   26.8400   27.0200   34.7400 C   0  0  0  0  0  0  0  0  0  0  0  0
   27.3800   27.2800   35.9400 N   0  0  0  0  0  0  0  0  0  0  0  0
   28.6200   27.7400   36.0300 N   0  0  0  0  0  0  0  0  0  0  0  0
   29.3800   28.0000   34.9600 C   0  0  0  0  0  0  0  0  0  0  0  0
   30.6700   28.5000   35.1300 C   0  0  0  0  0  0  0  0  0  0  0  0
   31.5400   28.6100   34.0300 C   0  0  0  0  0  0  0  0  0  0  0  0
   31.0900   28.2200   32.7700 C   0  0  0  0  0  0  0  0  0  0  0  0
   29.8000   27.7000   32.6000 C   0  0  0  0  0  0  0  0  0  0  0  0
   28.9600   27.5500   33.7100 C   0  0  0  0  0  0  0  0  0  0  0  0
   27.6600   27.0300   33.5900 C   0  0  0  0  0  0  0  0  0  0  0  0
   27.1600   26.7400   32.3400 N   0  0  0  0  0  0  0  0  0  0  0  0
   33.1579   29.2724   34.2294 S   0  0  0  0  0  6  0  0  0  0  0  0
   33.6241   29.0608   35.6438 O   0  0  0  0  0  0  0  0  0  0  0  0
   34.1062   28.5670   33.3009 O   0  0  0  0  0  0  0  0  0  0  0  0
   33.1211   31.0198   33.8299 C   0  0  1  0  0  0  0  0  0  0  0  0
   32.4473   31.8657   34.8997 C   0  0  0  0  0  0  0  0  0  0  0  0
   33.6939   32.5683   35.2566 N   0  0  0  0  0  0  0  0  0  0  0  0
   33.6116   34.0232   34.9974 C   0  0  0  0  0  0  0  0  0  0  0  0
   32.9350   34.7426   36.1662 C   0  0  0  0  0  0  0  0  0  0  0  0
   32.9798   36.1082   35.9528 F   0  0  0  0  0  0  0  0  0  0  0  0
   33.5965   34.4512   37.3458 F   0  0  0  0  0  0  0  0  0  0  0  0
   31.6128   34.3533   36.2785 F   0  0  0  0  0  0  0  0  0  0  0  0
   34.3985   31.7673   34.2284 C   0  0  2  0  0  0  0  0  0  0  0  0
   35.1935   32.5667   33.1503 C   0  0  0  0  0  0  0  0  0  0  0  0
   35.3435   31.8692   31.8048 C   0  0  0  0  0  0  0  0  0  0  0  0
   34.5018   33.1333   31.9164 C   0  0  0  0  0  0  0  0  0  0  0  0
  1  2  1  0
  2  3  2  0
  2  4  1  0
  4  5  2  0
  5  6  1  0
  6  7  2  0
  7  8  1  0
  8  9  2  0
  9 10  1  0
 10 11  2  0
 11 12  1  0
 12 13  2  0
 13 14  1  0
  9 15  1  0
 15 16  2  0
 15 17  2  0
 18 15  1  1
 18 19  1  0
 19 20  1  0
 20 21  1  0
 21 22  1  0
 22 23  1  0
 22 24  1  0
 22 25  1  0
 20 26  1  0
 26 27  1  6
 27 28  1  0
 28 29  1  0
 13  4  1  0
 26 18  1  0
 29 27  1  0
 12  7  1  0
M  END
>  <AAScore>  (1) 
-5.960140663848289

>  <RootName>  (1) 
./4ZLY/04_DeltaGEst/trajectory_05/rank_01/lead_0171

$$$$
