confid_11
     RDKit          3D

 29 32  0  0  0  0  0  0  0  0999 V2000
   24.6900   26.1200   35.5300 N   0  0  0  0  0  0  0  0  0  0  0  0
   25.6600   25.6700   34.6600 C   0  0  0  0  0  0  0  0  0  0  0  0
   25.2400   25.0100   33.7200 O   0  0  0  0  0  0  0  0  0  0  0  0
   27.0300   26.2200   34.8800 C   0  0  0  0  0  0  0  0  0  0  0  0
   27.3500   26.7300   36.0700 N   0  0  0  0  0  0  0  0  0  0  0  0
   28.5700   27.1800   36.3300 N   0  0  0  0  0  0  0  0  0  0  0  0
   29.5300   27.1100   35.3900 C   0  0  0  0  0  0  0  0  0  0  0  0
   30.8300   27.5700   35.6500 C   0  0  0  0  0  0  0  0  0  0  0  0
   31.8500   27.5400   34.6900 C   0  0  0  0  0  0  0  0  0  0  0  0
   31.5100   27.1200   33.4000 C   0  0  0  0  0  0  0  0  0  0  0  0
   30.2200   26.6300   33.1100 C   0  0  0  0  0  0  0  0  0  0  0  0
   29.2400   26.6600   34.1000 C   0  0  0  0  0  0  0  0  0  0  0  0
   27.9300   26.2600   33.8100 C   0  0  0  0  0  0  0  0  0  0  0  0
   27.5200   25.7100   32.6100 N   0  0  0  0  0  0  0  0  0  0  0  0
   31.1528   28.0597   36.9609 N   0  0  0  0  0  0  0  0  0  0  0  0
   31.2680   29.5063   37.1796 C   0  0  0  0  0  0  0  0  0  0  0  0
   29.9238   30.1033   37.6105 C   0  0  0  0  0  0  0  0  0  0  0  0
   29.1700   29.3139   38.6533 C   0  0  0  0  0  0  0  0  0  0  0  0
   27.5480   29.5969   39.0020 S   0  0  0  0  0  0  0  0  0  0  0  0
   27.3747   28.3780   40.1509 C   0  0  0  0  0  0  0  0  0  0  0  0
   26.1477   28.0415   40.8361 N   0  0  0  0  0  0  0  0  0  0  0  0
   24.8732   28.5367   40.3032 C   0  0  0  0  0  0  0  0  0  0  0  0
   26.1579   27.1622   41.9819 C   0  0  0  0  0  0  0  0  0  0  0  0
   27.1216   27.1961   42.7926 O   0  0  0  0  0  0  0  0  0  0  0  0
   25.0133   26.2380   42.2725 C   0  0  0  0  0  0  0  0  0  0  0  0
   28.5950   27.7139   40.2692 C   0  0  0  0  0  0  0  0  0  0  0  0
   29.6036   28.2356   39.4434 C   0  0  0  0  0  0  0  0  0  0  0  0
   30.9974   27.6682   39.4296 C   0  0  0  0  0  0  0  0  0  0  0  0
   31.3659   27.0972   38.0526 C   0  0  0  0  0  0  0  0  0  0  0  0
  1  2  1  0
  2  3  2  0
  2  4  1  0
  4  5  2  0
  5  6  1  0
  6  7  2  0
  7  8  1  0
  8  9  2  0
  9 10  1  0
 10 11  2  0
 11 12  1  0
 12 13  2  0
 13 14  1  0
  8 15  1  0
 15 16  1  0
 16 17  1  0
 17 18  1  0
 18 19  1  0
 19 20  1  0
 20 21  1  0
 21 22  1  0
 21 23  1  0
 23 24  2  0
 23 25  1  0
 20 26  2  0
 26 27  1  0
 27 28  1  0
 28 29  1  0
 13  4  1  0
 29 15  1  0
 12  7  1  0
 27 18  2  0
M  END
>  <AAScore>  (1) 
-4.201019493384552

>  <RootName>  (1) 
./4ZLY/04_DeltaGEst/trajectory_02/rank_01/lead_0340

$$$$
