confid_2
     RDKit          3D

 31 35  0  0  0  0  0  0  0  0999 V2000
   24.5700   26.8800   35.5900 N   0  0  0  0  0  0  0  0  0  0  0  0
   25.5000   26.4000   34.6900 C   0  0  0  0  0  0  0  0  0  0  0  0
   25.1700   25.5200   33.9100 O   0  0  0  0  0  0  0  0  0  0  0  0
   26.8400   27.0200   34.7400 C   0  0  0  0  0  0  0  0  0  0  0  0
   27.3800   27.2800   35.9400 N   0  0  0  0  0  0  0  0  0  0  0  0
   28.6200   27.7400   36.0300 N   0  0  0  0  0  0  0  0  0  0  0  0
   29.3800   28.0000   34.9600 C   0  0  0  0  0  0  0  0  0  0  0  0
   30.6700   28.5000   35.1300 C   0  0  0  0  0  0  0  0  0  0  0  0
   31.5400   28.6100   34.0300 C   0  0  0  0  0  0  0  0  0  0  0  0
   31.0900   28.2200   32.7700 C   0  0  0  0  0  0  0  0  0  0  0  0
   29.8000   27.7000   32.6000 C   0  0  0  0  0  0  0  0  0  0  0  0
   28.9600   27.5500   33.7100 C   0  0  0  0  0  0  0  0  0  0  0  0
   27.6600   27.0300   33.5900 C   0  0  0  0  0  0  0  0  0  0  0  0
   27.1600   26.7400   32.3400 N   0  0  0  0  0  0  0  0  0  0  0  0
   23.3707   26.1896   35.9914 C   0  0  0  0  0  0  0  0  0  0  0  0
   22.3813   26.8856   36.4718 N   0  0  0  0  0  0  0  0  0  0  0  0
   21.1391   26.3033   36.8844 C   0  0  0  0  0  0  0  0  0  0  0  0
   20.9995   24.9744   36.9748 C   0  0  0  0  0  0  0  0  0  0  0  0
   22.1936   24.0774   36.7610 C   0  0  1  0  0  0  0  0  0  0  0  0
   21.7358   22.7026   36.2476 C   0  0  0  0  0  0  0  0  0  0  0  0
   20.6058   22.1764   37.0271 N   0  0  0  0  0  0  0  0  0  0  0  0
   20.5029   20.7114   37.1155 C   0  0  0  0  0  0  0  0  0  0  0  0
   19.2234   20.2322   37.8128 C   0  0  0  0  0  0  0  0  0  0  0  0
   18.0437   21.0330   37.4241 N   0  0  0  0  0  0  0  0  0  0  0  0
   17.7496   20.8543   35.9814 C   0  0  0  0  0  0  0  0  0  0  0  0
   18.1671   22.4641   37.8478 C   0  0  0  0  0  0  0  0  0  0  0  0
   16.9609   23.2819   37.2928 C   0  0  0  0  0  0  0  0  0  0  0  0
   18.0901   22.5501   39.3940 C   0  0  0  0  0  0  0  0  0  0  0  0
   19.5095   23.0557   37.3877 C   0  0  0  0  0  0  0  0  0  0  0  0
   19.7175   24.3897   37.4094 C   0  0  0  0  0  0  0  0  0  0  0  0
   23.2062   24.6990   35.7766 C   0  0  0  0  0  0  0  0  0  0  0  0
  1  2  1  0
  2  3  2  0
  2  4  1  0
  4  5  2  0
  5  6  1  0
  6  7  2  0
  7  8  1  0
  8  9  2  0
  9 10  1  0
 10 11  2  0
 11 12  1  0
 12 13  2  0
 13 14  1  0
  1 15  1  0
 15 16  2  0
 16 17  1  0
 17 18  2  0
 18 19  1  0
 19 20  1  6
 20 21  1  0
 21 22  1  0
 22 23  1  0
 23 24  1  0
 24 25  1  0
 24 26  1  0
 26 27  1  0
 26 28  1  0
 26 29  1  0
 29 30  2  0
 19 31  1  0
 13  4  1  0
 31 15  1  0
 12  7  1  0
 30 18  1  0
 29 21  1  0
M  END
>  <AAScore>  (1) 
1438.5711510485264

>  <RootName>  (1) 
./4ZLY/04_DeltaGEst/trajectory_05/rank_00/lead_0283

$$$$
