confid_14
     RDKit          3D

 29 32  0  0  0  0  0  0  0  0999 V2000
   25.3300   26.2600   34.7600 N   0  0  0  0  0  0  0  0  0  0  0  0
   26.1200   25.9200   33.6900 C   0  0  0  0  0  0  0  0  0  0  0  0
   25.6300   25.1100   32.9400 O   0  0  0  0  0  0  0  0  0  0  0  0
   27.5200   26.3800   33.4600 C   0  0  0  0  0  0  0  0  0  0  0  0
   28.1600   26.6300   34.6100 N   0  0  0  0  0  0  0  0  0  0  0  0
   29.4800   26.8500   34.5700 N   0  0  0  0  0  0  0  0  0  0  0  0
   30.1900   26.7800   33.4400 C   0  0  0  0  0  0  0  0  0  0  0  0
   31.5600   27.0500   33.5000 C   0  0  0  0  0  0  0  0  0  0  0  0
   32.2700   27.2400   32.3100 C   0  0  0  0  0  0  0  0  0  0  0  0
   31.6100   27.2500   31.0800 C   0  0  0  0  0  0  0  0  0  0  0  0
   30.2700   26.8700   31.0600 C   0  0  0  0  0  0  0  0  0  0  0  0
   29.5100   26.6900   32.2300 C   0  0  0  0  0  0  0  0  0  0  0  0
   28.1400   26.4100   32.2000 C   0  0  0  0  0  0  0  0  0  0  0  0
   27.4300   26.1300   31.0500 N   0  0  0  0  0  0  0  0  0  0  0  0
   23.9258   25.9774   34.8910 C   0  0  0  0  0  0  0  0  0  0  0  0
   23.1638   25.4275   33.9184 N   0  0  0  0  0  0  0  0  0  0  0  0
   21.8616   25.3096   34.2950 C   0  0  0  0  0  0  0  0  0  0  0  0
   20.8446   24.6927   33.3671 C   0  0  0  0  0  0  0  0  0  0  0  0
   19.3962   25.2127   33.5084 C   0  0  0  0  0  0  0  0  0  0  0  0
   19.3209   26.5767   34.0599 N   0  0  0  0  0  0  0  0  0  0  0  0
   19.3288   26.7795   35.5201 C   0  0  0  0  0  0  0  0  0  0  0  0
   20.2567   25.8008   36.2524 C   0  0  0  0  0  0  0  0  0  0  0  0
   21.5976   25.7518   35.5938 C   0  0  0  0  0  0  0  0  0  0  0  0
   23.0238   26.3448   36.2613 S   0  0  0  0  0  0  0  0  0  0  0  0
   18.8465   27.6530   33.2263 C   0  0  0  0  0  0  0  0  0  0  0  0
   18.0121   28.4778   33.6906 O   0  0  0  0  0  0  0  0  0  0  0  0
   19.2911   27.7938   31.8662 N   0  0  0  0  0  0  0  0  0  0  0  0
   20.6935   27.5880   31.5061 C   0  0  0  0  0  0  0  0  0  0  0  0
   18.3409   28.2264   30.8417 C   0  0  0  0  0  0  0  0  0  0  0  0
  1  2  1  0
  2  3  2  0
  2  4  1  0
  4  5  2  0
  5  6  1  0
  6  7  2  0
  7  8  1  0
  8  9  2  0
  9 10  1  0
 10 11  2  0
 11 12  1  0
 12 13  2  0
 13 14  1  0
  1 15  1  0
 15 16  2  0
 16 17  1  0
 17 18  1  0
 18 19  1  0
 19 20  1  0
 20 21  1  0
 21 22  1  0
 22 23  1  0
 23 24  1  0
 20 25  1  0
 25 26  2  0
 25 27  1  0
 27 28  1  0
 27 29  1  0
 13  4  1  0
 24 15  1  0
 12  7  1  0
 23 17  2  0
M  END
>  <AAScore>  (1) 
1407.401783665685

>  <RootName>  (1) 
./4ZLY/04_DeltaGEst/trajectory_03/rank_00/lead_0457

$$$$
