confid_17
     RDKit          3D

 28 31  0  0  0  0  0  0  0  0999 V2000
   24.5700   26.8800   35.5900 N   0  0  0  0  0  0  0  0  0  0  0  0
   25.5000   26.4000   34.6900 C   0  0  0  0  0  0  0  0  0  0  0  0
   25.1700   25.5200   33.9100 O   0  0  0  0  0  0  0  0  0  0  0  0
   26.8400   27.0200   34.7400 C   0  0  0  0  0  0  0  0  0  0  0  0
   27.3800   27.2800   35.9400 N   0  0  0  0  0  0  0  0  0  0  0  0
   28.6200   27.7400   36.0300 N   0  0  0  0  0  0  0  0  0  0  0  0
   29.3800   28.0000   34.9600 C   0  0  0  0  0  0  0  0  0  0  0  0
   30.6700   28.5000   35.1300 C   0  0  0  0  0  0  0  0  0  0  0  0
   31.5400   28.6100   34.0300 C   0  0  0  0  0  0  0  0  0  0  0  0
   31.0900   28.2200   32.7700 C   0  0  0  0  0  0  0  0  0  0  0  0
   29.8000   27.7000   32.6000 C   0  0  0  0  0  0  0  0  0  0  0  0
   28.9600   27.5500   33.7100 C   0  0  0  0  0  0  0  0  0  0  0  0
   27.6600   27.0300   33.5900 C   0  0  0  0  0  0  0  0  0  0  0  0
   27.1600   26.7400   32.3400 N   0  0  0  0  0  0  0  0  0  0  0  0
   23.2183   26.4074   35.6212 C   0  0  0  0  0  0  0  0  0  0  0  0
   22.7331   25.6826   36.6510 N   0  0  0  0  0  0  0  0  0  0  0  0
   21.4516   25.4492   36.3104 C   0  0  0  0  0  0  0  0  0  0  0  0
   21.1778   26.0554   35.1016 C   0  0  0  0  0  0  0  0  0  0  0  0
   19.8718   26.0230   34.4223 C   0  0  0  0  0  0  0  0  0  0  0  0
   19.1400   25.0054   34.5433 O   0  0  0  0  0  0  0  0  0  0  0  0
   19.4022   27.1383   33.6538 N   0  0  0  0  0  0  0  0  0  0  0  0
   19.0013   28.3695   34.3496 C   0  0  0  0  0  0  0  0  0  0  0  0
   20.2042   29.2047   34.8059 C   0  0  0  0  0  0  0  0  0  0  0  0
   21.1344   29.6090   33.6432 C   0  0  0  0  0  0  0  0  0  0  0  0
   22.5217   28.9503   33.7094 C   0  0  0  0  0  0  0  0  0  0  0  0
   22.5010   27.4388   33.4268 C   0  0  0  0  0  0  0  0  0  0  0  0
   22.3009   26.6630   34.6588 N   0  0  0  0  0  0  0  0  0  0  0  0
   18.8782   26.8803   32.3110 C   0  0  0  0  0  0  0  0  0  0  0  0
  1  2  1  0
  2  3  2  0
  2  4  1  0
  4  5  2  0
  5  6  1  0
  6  7  2  0
  7  8  1  0
  8  9  2  0
  9 10  1  0
 10 11  2  0
 11 12  1  0
 12 13  2  0
 13 14  1  0
  1 15  1  0
 15 16  2  0
 16 17  1  0
 17 18  2  0
 18 19  1  0
 19 20  2  0
 19 21  1  0
 21 22  1  0
 22 23  1  0
 23 24  1  0
 24 25  1  0
 25 26  1  0
 26 27  1  0
 21 28  1  0
 13  4  1  0
 27 15  1  0
 12  7  1  0
 27 18  1  0
M  END
>  <AAScore>  (1) 
4660.256884827366

>  <RootName>  (1) 
./4ZLY/04_DeltaGEst/trajectory_05/rank_00/lead_0222

$$$$
