confid_18
     RDKit          3D

 28 31  0  0  0  0  0  0  0  0999 V2000
   24.2000   26.2400   35.6900 N   0  0  0  0  0  0  0  0  0  0  0  0
   24.8500   26.2800   34.4800 C   0  0  0  0  0  0  0  0  0  0  0  0
   24.3100   25.7400   33.5400 O   0  0  0  0  0  0  0  0  0  0  0  0
   26.1800   26.9700   34.4700 C   0  0  0  0  0  0  0  0  0  0  0  0
   26.6500   27.6000   35.5500 N   0  0  0  0  0  0  0  0  0  0  0  0
   27.7900   28.2700   35.6200 N   0  0  0  0  0  0  0  0  0  0  0  0
   28.5400   28.3000   34.5100 C   0  0  0  0  0  0  0  0  0  0  0  0
   29.7700   28.9400   34.5600 C   0  0  0  0  0  0  0  0  0  0  0  0
   30.7000   28.8900   33.5000 C   0  0  0  0  0  0  0  0  0  0  0  0
   30.3700   28.1400   32.3700 C   0  0  0  0  0  0  0  0  0  0  0  0
   29.1200   27.5200   32.2800 C   0  0  0  0  0  0  0  0  0  0  0  0
   28.2100   27.6100   33.3300 C   0  0  0  0  0  0  0  0  0  0  0  0
   26.9700   26.9700   33.3100 C   0  0  0  0  0  0  0  0  0  0  0  0
   26.5300   26.2400   32.2200 N   0  0  0  0  0  0  0  0  0  0  0  0
   30.1381   29.6808   35.7349 N   0  0  0  0  0  0  0  0  0  0  0  0
   29.5063   30.9803   35.9949 C   0  0  0  0  0  0  0  0  0  0  0  0
   30.0223   31.6066   37.2958 C   0  0  0  0  0  0  0  0  0  0  0  0
   31.4914   31.5299   37.3637 N   0  0  0  0  0  0  0  0  0  0  0  0
   32.2348   32.5993   37.9928 C   0  0  0  0  0  0  0  0  0  0  0  0
   33.6193   32.7522   37.7842 C   0  0  0  0  0  0  0  0  0  0  0  0
   34.2995   33.8026   38.4048 C   0  0  0  0  0  0  0  0  0  0  0  0
   35.6312   33.9605   38.2031 F   0  0  0  0  0  0  0  0  0  0  0  0
   33.6051   34.6921   39.2257 C   0  0  0  0  0  0  0  0  0  0  0  0
   34.2530   35.7175   39.8319 F   0  0  0  0  0  0  0  0  0  0  0  0
   32.2342   34.5157   39.4152 C   0  0  0  0  0  0  0  0  0  0  0  0
   31.5892   33.4877   38.8024 N   0  0  0  0  0  0  0  0  0  0  0  0
   32.1801   30.2960   36.9415 C   0  0  0  0  0  0  0  0  0  0  0  0
   31.1898   29.1739   36.6198 C   0  0  0  0  0  0  0  0  0  0  0  0
  1  2  1  0
  2  3  2  0
  2  4  1  0
  4  5  2  0
  5  6  1  0
  6  7  2  0
  7  8  1  0
  8  9  2  0
  9 10  1  0
 10 11  2  0
 11 12  1  0
 12 13  2  0
 13 14  1  0
  8 15  1  0
 15 16  1  0
 16 17  1  0
 17 18  1  0
 18 19  1  0
 19 20  2  0
 20 21  1  0
 21 22  1  0
 21 23  2  0
 23 24  1  0
 23 25  1  0
 25 26  2  0
 18 27  1  0
 27 28  1  0
 13  4  1  0
 28 15  1  0
 12  7  1  0
 26 19  1  0
M  END
>  <AAScore>  (1) 
-7.767629324497014

>  <RootName>  (1) 
./4ZLY/04_DeltaGEst/trajectory_04/rank_01/lead_0345

$$$$
