confid_11
     RDKit          3D

 28 32  0  0  0  0  0  0  0  0999 V2000
   24.5700   26.8800   35.5900 N   0  0  0  0  0  0  0  0  0  0  0  0
   25.5000   26.4000   34.6900 C   0  0  0  0  0  0  0  0  0  0  0  0
   25.1700   25.5200   33.9100 O   0  0  0  0  0  0  0  0  0  0  0  0
   26.8400   27.0200   34.7400 C   0  0  0  0  0  0  0  0  0  0  0  0
   27.3800   27.2800   35.9400 N   0  0  0  0  0  0  0  0  0  0  0  0
   28.6200   27.7400   36.0300 N   0  0  0  0  0  0  0  0  0  0  0  0
   29.3800   28.0000   34.9600 C   0  0  0  0  0  0  0  0  0  0  0  0
   30.6700   28.5000   35.1300 C   0  0  0  0  0  0  0  0  0  0  0  0
   31.5400   28.6100   34.0300 C   0  0  0  0  0  0  0  0  0  0  0  0
   31.0900   28.2200   32.7700 C   0  0  0  0  0  0  0  0  0  0  0  0
   29.8000   27.7000   32.6000 C   0  0  0  0  0  0  0  0  0  0  0  0
   28.9600   27.5500   33.7100 C   0  0  0  0  0  0  0  0  0  0  0  0
   27.6600   27.0300   33.5900 C   0  0  0  0  0  0  0  0  0  0  0  0
   27.1600   26.7400   32.3400 N   0  0  0  0  0  0  0  0  0  0  0  0
   23.2659   26.3131   35.7829 C   0  0  0  0  0  0  0  0  0  0  0  0
   22.7752   25.1809   35.1626 N   0  0  0  0  0  0  0  0  0  0  0  0
   21.4983   24.9594   35.6436 C   0  0  0  0  0  0  0  0  0  0  0  0
   21.2833   25.9721   36.5294 C   0  0  0  0  0  0  0  0  0  0  0  0
   20.5197   26.7673   37.5572 C   0  0  2  0  0  0  0  0  0  0  0  0
   19.2583   27.4943   37.0183 C   0  0  0  0  0  0  0  0  0  0  0  0
   18.1007   26.6157   36.7226 N   0  0  0  0  0  0  0  0  0  0  0  0
   17.8861   25.5273   37.6946 C   0  0  0  0  0  0  0  0  0  0  0  0
   16.4708   24.9417   37.5422 C   0  0  0  0  0  0  0  0  0  0  0  0
   15.9447   25.0260   36.0983 C   0  0  0  0  0  0  0  0  0  0  0  0
   17.0911   24.9878   35.0867 C   0  0  0  0  0  0  0  0  0  0  0  0
   18.0632   26.1629   35.3122 C   0  0  0  0  0  0  0  0  0  0  0  0
   21.6864   27.6048   37.6201 C   0  0  0  0  0  0  0  0  0  0  0  0
   22.3550   26.7927   36.6264 N   0  0  0  0  0  0  0  0  0  0  0  0
  1  2  1  0
  2  3  2  0
  2  4  1  0
  4  5  2  0
  5  6  1  0
  6  7  2  0
  7  8  1  0
  8  9  2  0
  9 10  1  0
 10 11  2  0
 11 12  1  0
 12 13  2  0
 13 14  1  0
  1 15  1  0
 15 16  2  0
 16 17  1  0
 17 18  2  0
 18 19  1  0
 19 20  1  6
 20 21  1  0
 21 22  1  0
 22 23  1  0
 23 24  1  0
 24 25  1  0
 25 26  1  0
 19 27  1  0
 27 28  1  0
 13  4  1  0
 28 15  1  0
 12  7  1  0
 28 18  1  0
 26 21  1  0
M  END
>  <AAScore>  (1) 
18611.35817770731

>  <RootName>  (1) 
./4ZLY/04_DeltaGEst/trajectory_05/rank_00/lead_0149

$$$$
