confid_1
     RDKit          3D

 31 35  0  0  0  0  0  0  0  0999 V2000
   24.6900   26.1200   35.5300 N   0  0  0  0  0  0  0  0  0  0  0  0
   25.6600   25.6700   34.6600 C   0  0  0  0  0  0  0  0  0  0  0  0
   25.2400   25.0100   33.7200 O   0  0  0  0  0  0  0  0  0  0  0  0
   27.0300   26.2200   34.8800 C   0  0  0  0  0  0  0  0  0  0  0  0
   27.3500   26.7300   36.0700 N   0  0  0  0  0  0  0  0  0  0  0  0
   28.5700   27.1800   36.3300 N   0  0  0  0  0  0  0  0  0  0  0  0
   29.5300   27.1100   35.3900 C   0  0  0  0  0  0  0  0  0  0  0  0
   30.8300   27.5700   35.6500 C   0  0  0  0  0  0  0  0  0  0  0  0
   31.8500   27.5400   34.6900 C   0  0  0  0  0  0  0  0  0  0  0  0
   31.5100   27.1200   33.4000 C   0  0  0  0  0  0  0  0  0  0  0  0
   30.2200   26.6300   33.1100 C   0  0  0  0  0  0  0  0  0  0  0  0
   29.2400   26.6600   34.1000 C   0  0  0  0  0  0  0  0  0  0  0  0
   27.9300   26.2600   33.8100 C   0  0  0  0  0  0  0  0  0  0  0  0
   27.5200   25.7100   32.6100 N   0  0  0  0  0  0  0  0  0  0  0  0
   23.2670   25.9979   35.3198 C   0  0  0  0  0  0  0  0  0  0  0  0
   22.5142   25.9284   36.3848 N   0  0  0  0  0  0  0  0  0  0  0  0
   21.1050   25.7401   36.6002 C   0  0  0  0  0  0  0  0  0  0  0  0
   20.3521   24.9690   35.8171 C   0  0  0  0  0  0  0  0  0  0  0  0
   19.2895   23.9286   36.0524 C   0  0  0  0  0  0  0  0  0  0  0  0
   19.4033   23.3462   34.7888 O   0  0  0  0  0  0  0  0  0  0  0  0
   20.2698   24.3809   34.4391 C   0  0  2  0  0  0  0  0  0  0  0  0
   21.6295   23.9365   33.8987 C   0  0  0  0  0  0  0  0  0  0  0  0
   22.2196   25.1546   33.2161 C   0  0  0  0  0  0  0  0  0  0  0  0
   22.7347   26.1827   33.9378 C   0  0  0  0  0  0  0  0  0  0  0  0
   23.0301   27.4383   33.2955 N   0  0  0  0  0  0  0  0  0  0  0  0
   24.0272   27.5011   32.2656 C   0  0  0  0  0  0  0  0  0  0  0  0
   25.0840   28.1574   32.4695 O   0  0  0  0  0  0  0  0  0  0  0  0
   23.7665   26.9239   30.9033 C   0  0  0  0  0  0  0  0  0  0  0  0
   23.2567   25.4750   30.9376 C   0  0  0  0  0  0  0  0  0  0  0  0
   21.9510   25.3257   31.7309 C   0  0  0  0  0  0  0  0  0  0  0  0
   22.6437   28.6794   33.9656 C   0  0  0  0  0  0  0  0  0  0  0  0
  1  2  1  0
  2  3  2  0
  2  4  1  0
  4  5  2  0
  5  6  1  0
  6  7  2  0
  7  8  1  0
  8  9  2  0
  9 10  1  0
 10 11  2  0
 11 12  1  0
 12 13  2  0
 13 14  1  0
  1 15  1  0
 15 16  2  0
 16 17  1  0
 17 18  2  0
 18 19  1  0
 19 20  1  0
 20 21  1  0
 21 22  1  1
 22 23  1  0
 23 24  2  0
 24 25  1  0
 25 26  1  0
 26 27  2  0
 26 28  1  0
 28 29  1  0
 29 30  1  0
 25 31  1  0
 13  4  1  0
 24 15  1  0
 12  7  1  0
 21 18  1  0
 30 23  1  0
M  END
>  <AAScore>  (1) 
6861.555319041849

>  <RootName>  (1) 
./4ZLY/04_DeltaGEst/trajectory_02/rank_00/lead_0409

$$$$
