confid_17
     RDKit          3D

 29 33  0  0  0  0  0  0  0  0999 V2000
   25.3300   26.2600   34.7600 N   0  0  0  0  0  0  0  0  0  0  0  0
   26.1200   25.9200   33.6900 C   0  0  0  0  0  0  0  0  0  0  0  0
   25.6300   25.1100   32.9400 O   0  0  0  0  0  0  0  0  0  0  0  0
   27.5200   26.3800   33.4600 C   0  0  0  0  0  0  0  0  0  0  0  0
   28.1600   26.6300   34.6100 N   0  0  0  0  0  0  0  0  0  0  0  0
   29.4800   26.8500   34.5700 N   0  0  0  0  0  0  0  0  0  0  0  0
   30.1900   26.7800   33.4400 C   0  0  0  0  0  0  0  0  0  0  0  0
   31.5600   27.0500   33.5000 C   0  0  0  0  0  0  0  0  0  0  0  0
   32.2700   27.2400   32.3100 C   0  0  0  0  0  0  0  0  0  0  0  0
   31.6100   27.2500   31.0800 C   0  0  0  0  0  0  0  0  0  0  0  0
   30.2700   26.8700   31.0600 C   0  0  0  0  0  0  0  0  0  0  0  0
   29.5100   26.6900   32.2300 C   0  0  0  0  0  0  0  0  0  0  0  0
   28.1400   26.4100   32.2000 C   0  0  0  0  0  0  0  0  0  0  0  0
   27.4300   26.1300   31.0500 N   0  0  0  0  0  0  0  0  0  0  0  0
   27.5890   24.8189   30.4044 C   0  0  0  0  0  0  0  0  0  0  0  0
   27.0290   24.8458   28.9838 C   0  0  0  0  0  0  0  0  0  0  0  0
   27.3799   26.1378   28.3671 N   0  0  0  0  0  0  0  0  0  0  0  0
   27.1894   26.1077   26.9038 C   0  0  0  0  0  0  0  0  0  0  0  0
   28.3473   25.4138   26.2448 C   0  0  0  0  0  0  0  0  0  0  0  0
   28.1387   24.1340   25.6027 N   0  0  0  0  0  0  0  0  0  0  0  0
   29.1086   23.4722   25.0379 C   0  0  0  0  0  0  0  0  0  0  0  0
   30.4236   24.0287   25.0540 N   0  0  0  0  0  0  0  0  0  0  0  0
   31.6323   23.4548   24.5073 C   0  0  0  0  0  0  0  0  0  0  0  0
   32.7359   24.4783   24.8613 C   0  0  0  0  0  0  0  0  0  0  0  0
   32.0475   25.6301   25.6277 C   0  0  0  0  0  0  0  0  0  0  0  0
   30.6534   25.2451   25.6744 N   0  0  0  0  0  0  0  0  0  0  0  0
   29.5790   25.9559   26.2905 C   0  0  0  0  0  0  0  0  0  0  0  0
   26.5982   27.2378   28.9755 C   0  0  0  0  0  0  0  0  0  0  0  0
   26.4860   27.1195   30.5131 C   0  0  0  0  0  0  0  0  0  0  0  0
  1  2  1  0
  2  3  2  0
  2  4  1  0
  4  5  2  0
  5  6  1  0
  6  7  2  0
  7  8  1  0
  8  9  2  0
  9 10  1  0
 10 11  2  0
 11 12  1  0
 12 13  2  0
 13 14  1  0
 14 15  1  0
 15 16  1  0
 16 17  1  0
 17 18  1  0
 18 19  1  0
 19 20  1  0
 20 21  2  0
 21 22  1  0
 22 23  1  0
 23 24  1  0
 24 25  1  0
 25 26  1  0
 26 27  1  0
 17 28  1  0
 28 29  1  0
 13  4  1  0
 29 14  1  0
 12  7  1  0
 27 19  2  0
 26 22  1  0
M  END
>  <AAScore>  (1) 
-2.532977455427724

>  <RootName>  (1) 
./4ZLY/04_DeltaGEst/trajectory_03/rank_01/lead_0229

$$$$
