confid_3
     RDKit          3D

 29 32  0  0  0  0  0  0  0  0999 V2000
   24.5700   26.8800   35.5900 N   0  0  0  0  0  0  0  0  0  0  0  0
   25.5000   26.4000   34.6900 C   0  0  0  0  0  0  0  0  0  0  0  0
   25.1700   25.5200   33.9100 O   0  0  0  0  0  0  0  0  0  0  0  0
   26.8400   27.0200   34.7400 C   0  0  0  0  0  0  0  0  0  0  0  0
   27.3800   27.2800   35.9400 N   0  0  0  0  0  0  0  0  0  0  0  0
   28.6200   27.7400   36.0300 N   0  0  0  0  0  0  0  0  0  0  0  0
   29.3800   28.0000   34.9600 C   0  0  0  0  0  0  0  0  0  0  0  0
   30.6700   28.5000   35.1300 C   0  0  0  0  0  0  0  0  0  0  0  0
   31.5400   28.6100   34.0300 C   0  0  0  0  0  0  0  0  0  0  0  0
   31.0900   28.2200   32.7700 C   0  0  0  0  0  0  0  0  0  0  0  0
   29.8000   27.7000   32.6000 C   0  0  0  0  0  0  0  0  0  0  0  0
   28.9600   27.5500   33.7100 C   0  0  0  0  0  0  0  0  0  0  0  0
   27.6600   27.0300   33.5900 C   0  0  0  0  0  0  0  0  0  0  0  0
   27.1600   26.7400   32.3400 N   0  0  0  0  0  0  0  0  0  0  0  0
   23.2431   26.3452   35.7145 C   0  0  0  0  0  0  0  0  0  0  0  0
   22.5460   25.9686   34.6749 N   0  0  0  0  0  0  0  0  0  0  0  0
   21.2922   25.4526   35.1168 C   0  0  0  0  0  0  0  0  0  0  0  0
   21.3316   25.4829   36.4235 C   0  0  0  0  0  0  0  0  0  0  0  0
   21.6182   24.4368   37.4772 C   0  0  0  0  0  0  0  0  0  0  0  0
   22.8363   25.0694   37.9688 N   0  0  0  0  0  0  0  0  0  0  0  0
   24.0334   24.2641   37.6161 C   0  0  0  0  0  0  0  0  0  0  0  0
   25.3023   24.8668   38.2536 C   0  0  0  0  0  0  0  0  0  0  0  0
   26.5667   24.2830   37.6081 C   0  0  0  0  0  0  0  0  0  0  0  0
   25.3301   24.6188   39.7691 C   0  0  0  0  0  0  0  0  0  0  0  0
   22.5042   26.1656   37.0424 C   0  0  1  0  0  0  0  0  0  0  0  0
   22.0540   27.4775   37.7387 C   0  0  0  0  0  0  0  0  0  0  0  0
   23.0673   28.0522   38.7340 C   0  0  0  0  0  0  0  0  0  0  0  0
   23.1330   27.2310   39.8817 O   0  0  0  0  0  0  0  0  0  0  0  0
   24.0076   27.8153   40.8221 C   0  0  0  0  0  0  0  0  0  0  0  0
  1  2  1  0
  2  3  2  0
  2  4  1  0
  4  5  2  0
  5  6  1  0
  6  7  2  0
  7  8  1  0
  8  9  2  0
  9 10  1  0
 10 11  2  0
 11 12  1  0
 12 13  2  0
 13 14  1  0
  1 15  1  0
 15 16  2  0
 16 17  1  0
 17 18  2  0
 18 19  1  0
 19 20  1  0
 20 21  1  0
 21 22  1  0
 22 23  1  0
 22 24  1  0
 20 25  1  0
 25 26  1  1
 26 27  1  0
 27 28  1  0
 28 29  1  0
 13  4  1  0
 25 15  1  0
 12  7  1  0
 25 18  1  0
M  END
>  <AAScore>  (1) 
907.6537334467652

>  <RootName>  (1) 
./4ZLY/04_DeltaGEst/trajectory_05/rank_00/lead_0302

$$$$
