confid_6
     RDKit          3D

 27 30  0  0  0  0  0  0  0  0999 V2000
   24.6900   26.1200   35.5300 N   0  0  0  0  0  0  0  0  0  0  0  0
   25.6600   25.6700   34.6600 C   0  0  0  0  0  0  0  0  0  0  0  0
   25.2400   25.0100   33.7200 O   0  0  0  0  0  0  0  0  0  0  0  0
   27.0300   26.2200   34.8800 C   0  0  0  0  0  0  0  0  0  0  0  0
   27.3500   26.7300   36.0700 N   0  0  0  0  0  0  0  0  0  0  0  0
   28.5700   27.1800   36.3300 N   0  0  0  0  0  0  0  0  0  0  0  0
   29.5300   27.1100   35.3900 C   0  0  0  0  0  0  0  0  0  0  0  0
   30.8300   27.5700   35.6500 C   0  0  0  0  0  0  0  0  0  0  0  0
   31.8500   27.5400   34.6900 C   0  0  0  0  0  0  0  0  0  0  0  0
   31.5100   27.1200   33.4000 C   0  0  0  0  0  0  0  0  0  0  0  0
   30.2200   26.6300   33.1100 C   0  0  0  0  0  0  0  0  0  0  0  0
   29.2400   26.6600   34.1000 C   0  0  0  0  0  0  0  0  0  0  0  0
   27.9300   26.2600   33.8100 C   0  0  0  0  0  0  0  0  0  0  0  0
   27.5200   25.7100   32.6100 N   0  0  0  0  0  0  0  0  0  0  0  0
   23.2881   25.8588   35.3630 C   0  0  0  0  0  0  0  0  0  0  0  0
   22.3853   26.8545   35.2364 N   0  0  0  0  0  0  0  0  0  0  0  0
   21.2047   26.2172   35.1023 C   0  0  0  0  0  0  0  0  0  0  0  0
   21.4110   24.8552   35.1521 C   0  0  0  0  0  0  0  0  0  0  0  0
   20.3313   23.8087   35.1282 C   0  0  0  0  0  0  0  0  0  0  0  0
   20.7706   22.6616   34.3054 N   0  0  0  0  0  0  0  0  0  0  0  0
   20.3717   22.8448   32.8993 C   0  0  0  0  0  0  0  0  0  0  0  0
   20.2827   21.3654   34.8222 C   0  0  0  0  0  0  0  0  0  0  0  0
   20.9766   20.9474   36.1390 C   0  0  0  0  0  0  0  0  0  0  0  0
   22.4867   21.2336   36.1691 C   0  0  0  0  0  0  0  0  0  0  0  0
   22.7127   22.5899   36.5192 O   0  0  0  0  0  0  0  0  0  0  0  0
   23.3879   23.3238   35.5124 C   0  0  0  0  0  0  0  0  0  0  0  0
   22.7299   24.6250   35.3419 N   0  0  0  0  0  0  0  0  0  0  0  0
  1  2  1  0
  2  3  2  0
  2  4  1  0
  4  5  2  0
  5  6  1  0
  6  7  2  0
  7  8  1  0
  8  9  2  0
  9 10  1  0
 10 11  2  0
 11 12  1  0
 12 13  2  0
 13 14  1  0
  1 15  1  0
 15 16  2  0
 16 17  1  0
 17 18  2  0
 18 19  1  0
 19 20  1  0
 20 21  1  0
 20 22  1  0
 22 23  1  0
 23 24  1  0
 24 25  1  0
 25 26  1  0
 26 27  1  0
 13  4  1  0
 27 15  1  0
 12  7  1  0
 27 18  1  0
M  END
>  <AAScore>  (1) 
2478.908740756482

>  <RootName>  (1) 
./4ZLY/04_DeltaGEst/trajectory_02/rank_00/lead_0343

$$$$
