confid_10
     RDKit          3D

 28 31  0  0  0  0  0  0  0  0999 V2000
   24.5500   26.3900   36.2500 N   0  0  0  0  0  0  0  0  0  0  0  0
   25.6000   26.1300   35.4000 C   0  0  0  0  0  0  0  0  0  0  0  0
   25.4300   25.4300   34.4200 O   0  0  0  0  0  0  0  0  0  0  0  0
   26.9800   26.6300   35.7100 C   0  0  0  0  0  0  0  0  0  0  0  0
   27.3200   26.8200   36.9800 N   0  0  0  0  0  0  0  0  0  0  0  0
   28.4700   27.4000   37.3100 N   0  0  0  0  0  0  0  0  0  0  0  0
   29.4000   27.6300   36.3700 C   0  0  0  0  0  0  0  0  0  0  0  0
   30.6600   28.0500   36.8000 C   0  0  0  0  0  0  0  0  0  0  0  0
   31.5700   28.3600   35.7800 C   0  0  0  0  0  0  0  0  0  0  0  0
   31.3700   28.1000   34.4300 C   0  0  0  0  0  0  0  0  0  0  0  0
   30.1200   27.5900   34.0500 C   0  0  0  0  0  0  0  0  0  0  0  0
   29.1500   27.3400   35.0300 C   0  0  0  0  0  0  0  0  0  0  0  0
   27.8800   26.8900   34.6600 C   0  0  0  0  0  0  0  0  0  0  0  0
   27.4800   26.6100   33.3700 N   0  0  0  0  0  0  0  0  0  0  0  0
   23.2366   25.7376   36.1259 C   0  0  0  0  0  0  0  0  0  0  0  0
   22.1604   26.5182   36.9239 C   0  0  0  0  0  0  0  0  0  0  0  0
   21.9280   25.9681   38.3446 C   0  0  0  0  0  0  0  0  0  0  0  0
   23.1403   25.3194   38.8682 N   0  0  0  0  0  0  0  0  0  0  0  0
   23.7282   25.7541   40.1151 C   0  0  0  0  0  0  0  0  0  0  0  0
   24.5369   24.8931   40.8810 C   0  0  0  0  0  0  0  0  0  0  0  0
   25.1001   25.3544   42.0759 C   0  0  0  0  0  0  0  0  0  0  0  0
   24.8542   26.6633   42.4988 C   0  0  0  0  0  0  0  0  0  0  0  0
   24.0463   27.4909   41.7191 C   0  0  0  0  0  0  0  0  0  0  0  0
   23.5097   27.0242   40.5609 N   0  0  0  0  0  0  0  0  0  0  0  0
   25.9272   24.4833   42.8693 C   0  0  0  0  0  0  0  0  0  0  0  0
   26.5921   23.7831   43.5073 N   0  0  0  0  0  0  0  0  0  0  0  0
   23.7515   24.2282   38.0885 C   0  0  0  0  0  0  0  0  0  0  0  0
   23.3224   24.2791   36.6128 C   0  0  0  0  0  0  0  0  0  0  0  0
  1  2  1  0
  2  3  2  0
  2  4  1  0
  4  5  2  0
  5  6  1  0
  6  7  2  0
  7  8  1  0
  8  9  2  0
  9 10  1  0
 10 11  2  0
 11 12  1  0
 12 13  2  0
 13 14  1  0
  1 15  1  0
 15 16  1  0
 16 17  1  0
 17 18  1  0
 18 19  1  0
 19 20  2  0
 20 21  1  0
 21 22  2  0
 22 23  1  0
 23 24  2  0
 21 25  1  0
 25 26  3  0
 18 27  1  0
 27 28  1  0
 13  4  1  0
 28 15  1  0
 12  7  1  0
 24 19  1  0
M  END
>  <AAScore>  (1) 
59.51327563356952

>  <RootName>  (1) 
./4ZLY/04_DeltaGEst/trajectory_01/rank_00/lead_0441

$$$$
