confid_4
     RDKit          3D

 31 33  0  0  0  0  0  0  0  0999 V2000
   24.5500   26.3900   36.2500 N   0  0  0  0  0  0  0  0  0  0  0  0
   25.6000   26.1300   35.4000 C   0  0  0  0  0  0  0  0  0  0  0  0
   25.4300   25.4300   34.4200 O   0  0  0  0  0  0  0  0  0  0  0  0
   26.9800   26.6300   35.7100 C   0  0  0  0  0  0  0  0  0  0  0  0
   27.3200   26.8200   36.9800 N   0  0  0  0  0  0  0  0  0  0  0  0
   28.4700   27.4000   37.3100 N   0  0  0  0  0  0  0  0  0  0  0  0
   29.4000   27.6300   36.3700 C   0  0  0  0  0  0  0  0  0  0  0  0
   30.6600   28.0500   36.8000 C   0  0  0  0  0  0  0  0  0  0  0  0
   31.5700   28.3600   35.7800 C   0  0  0  0  0  0  0  0  0  0  0  0
   31.3700   28.1000   34.4300 C   0  0  0  0  0  0  0  0  0  0  0  0
   30.1200   27.5900   34.0500 C   0  0  0  0  0  0  0  0  0  0  0  0
   29.1500   27.3400   35.0300 C   0  0  0  0  0  0  0  0  0  0  0  0
   27.8800   26.8900   34.6600 C   0  0  0  0  0  0  0  0  0  0  0  0
   27.4800   26.6100   33.3700 N   0  0  0  0  0  0  0  0  0  0  0  0
   23.1894   25.8822   36.0156 C   0  0  1  0  0  0  0  0  0  0  0  0
   22.4053   25.8998   37.3487 C   0  0  0  0  0  0  0  0  0  0  0  0
   21.0460   25.1699   37.3087 C   0  0  0  0  0  0  0  0  0  0  0  0
   19.9308   26.1259   37.3039 N   0  0  0  0  0  0  0  0  0  0  0  0
   19.5181   26.8146   36.1115 C   0  0  0  0  0  0  0  0  0  0  0  0
   19.2343   28.0407   36.1735 O   0  0  0  0  0  0  0  0  0  0  0  0
   19.3155   26.0939   34.8088 C   0  0  0  0  0  0  0  0  0  0  0  0
   20.2853   26.5565   33.7863 N   0  0  0  0  0  0  0  0  0  0  0  0
   19.7707   26.3285   32.4126 C   0  0  0  0  0  0  0  0  0  0  0  0
   20.1771   27.4817   31.4919 C   0  0  0  0  0  0  0  0  0  0  0  0
   19.6314   27.2824   30.2369 F   0  0  0  0  0  0  0  0  0  0  0  0
   19.7030   28.6771   32.0019 F   0  0  0  0  0  0  0  0  0  0  0  0
   21.5525   27.5552   31.3717 F   0  0  0  0  0  0  0  0  0  0  0  0
   21.6089   25.9111   33.9726 C   0  0  0  0  0  0  0  0  0  0  0  0
   22.5026   26.7390   34.9202 C   0  0  0  0  0  0  0  0  0  0  0  0
   19.1614   26.2504   38.4222 O   0  0  0  0  0  0  0  0  0  0  0  0
   19.7606   27.2272   39.2399 C   0  0  0  0  0  0  0  0  0  0  0  0
  1  2  1  0
  2  3  2  0
  2  4  1  0
  4  5  2  0
  5  6  1  0
  6  7  2  0
  7  8  1  0
  8  9  2  0
  9 10  1  0
 10 11  2  0
 11 12  1  0
 12 13  2  0
 13 14  1  0
 15  1  1  1
 15 16  1  0
 16 17  1  0
 17 18  1  0
 18 19  1  0
 19 20  2  0
 19 21  1  0
 21 22  1  0
 22 23  1  0
 23 24  1  0
 24 25  1  0
 24 26  1  0
 24 27  1  0
 22 28  1  0
 28 29  1  0
 18 30  1  0
 30 31  1  0
 13  4  1  0
 29 15  1  0
 12  7  1  0
M  END
>  <AAScore>  (1) 
202.56627221505929

>  <RootName>  (1) 
./4ZLY/04_DeltaGEst/trajectory_01/rank_00/lead_0291

$$$$
