confid_0
     RDKit          3D

 28 32  0  0  0  0  0  0  0  0999 V2000
   24.5700   26.8800   35.5900 N   0  0  0  0  0  0  0  0  0  0  0  0
   25.5000   26.4000   34.6900 C   0  0  0  0  0  0  0  0  0  0  0  0
   25.1700   25.5200   33.9100 O   0  0  0  0  0  0  0  0  0  0  0  0
   26.8400   27.0200   34.7400 C   0  0  0  0  0  0  0  0  0  0  0  0
   27.3800   27.2800   35.9400 N   0  0  0  0  0  0  0  0  0  0  0  0
   28.6200   27.7400   36.0300 N   0  0  0  0  0  0  0  0  0  0  0  0
   29.3800   28.0000   34.9600 C   0  0  0  0  0  0  0  0  0  0  0  0
   30.6700   28.5000   35.1300 C   0  0  0  0  0  0  0  0  0  0  0  0
   31.5400   28.6100   34.0300 C   0  0  0  0  0  0  0  0  0  0  0  0
   31.0900   28.2200   32.7700 C   0  0  0  0  0  0  0  0  0  0  0  0
   29.8000   27.7000   32.6000 C   0  0  0  0  0  0  0  0  0  0  0  0
   28.9600   27.5500   33.7100 C   0  0  0  0  0  0  0  0  0  0  0  0
   27.6600   27.0300   33.5900 C   0  0  0  0  0  0  0  0  0  0  0  0
   27.1600   26.7400   32.3400 N   0  0  0  0  0  0  0  0  0  0  0  0
   23.1859   26.5163   35.5309 C   0  0  0  0  0  0  0  0  0  0  0  0
   22.6076   25.8666   36.4907 N   0  0  0  0  0  0  0  0  0  0  0  0
   21.2941   25.5267   36.0361 C   0  0  0  0  0  0  0  0  0  0  0  0
   21.0812   25.9860   34.8079 C   0  0  0  0  0  0  0  0  0  0  0  0
   19.9178   25.7505   33.8793 C   0  0  2  0  0  0  0  0  0  0  0  0
   19.9043   26.8609   32.7993 C   0  0  0  0  0  0  0  0  0  0  0  0
   21.2623   27.1350   32.2871 N   0  0  0  0  0  0  0  0  0  0  0  0
   21.5340   27.2587   30.8551 C   0  0  0  0  0  0  0  0  0  0  0  0
   21.9981   28.6778   30.5026 C   0  0  0  0  0  0  0  0  0  0  0  0
   23.0222   29.5195   31.7813 S   0  0  0  0  0  0  0  0  0  0  0  0
   23.5639   28.0677   32.7468 C   0  0  0  0  0  0  0  0  0  0  0  0
   22.3667   27.2842   33.1996 C   0  0  0  0  0  0  0  0  0  0  0  0
   22.2841   26.6618   34.3841 C   0  0  0  0  0  0  0  0  0  0  0  0
   18.5796   25.7102   34.6270 C   0  0  0  0  0  0  0  0  0  0  0  0
  1  2  1  0
  2  3  2  0
  2  4  1  0
  4  5  2  0
  5  6  1  0
  6  7  2  0
  7  8  1  0
  8  9  2  0
  9 10  1  0
 10 11  2  0
 11 12  1  0
 12 13  2  0
 13 14  1  0
  1 15  1  0
 15 16  2  0
 16 17  1  0
 17 18  2  0
 18 19  1  0
 19 20  1  0
 20 21  1  0
 21 22  1  0
 22 23  1  0
 23 24  1  0
 24 25  1  0
 25 26  1  0
 26 27  2  0
 19 28  1  1
 13  4  1  0
 27 15  1  0
 12  7  1  0
 27 18  1  0
 26 21  1  0
M  END
>  <AAScore>  (1) 
13421.47928515307

>  <RootName>  (1) 
./4ZLY/04_DeltaGEst/trajectory_05/rank_00/lead_0451

$$$$
