confid_10
     RDKit          3D

 28 31  0  0  0  0  0  0  0  0999 V2000
   24.2000   26.2400   35.6900 N   0  0  0  0  0  0  0  0  0  0  0  0
   24.8500   26.2800   34.4800 C   0  0  0  0  0  0  0  0  0  0  0  0
   24.3100   25.7400   33.5400 O   0  0  0  0  0  0  0  0  0  0  0  0
   26.1800   26.9700   34.4700 C   0  0  0  0  0  0  0  0  0  0  0  0
   26.6500   27.6000   35.5500 N   0  0  0  0  0  0  0  0  0  0  0  0
   27.7900   28.2700   35.6200 N   0  0  0  0  0  0  0  0  0  0  0  0
   28.5400   28.3000   34.5100 C   0  0  0  0  0  0  0  0  0  0  0  0
   29.7700   28.9400   34.5600 C   0  0  0  0  0  0  0  0  0  0  0  0
   30.7000   28.8900   33.5000 C   0  0  0  0  0  0  0  0  0  0  0  0
   30.3700   28.1400   32.3700 C   0  0  0  0  0  0  0  0  0  0  0  0
   29.1200   27.5200   32.2800 C   0  0  0  0  0  0  0  0  0  0  0  0
   28.2100   27.6100   33.3300 C   0  0  0  0  0  0  0  0  0  0  0  0
   26.9700   26.9700   33.3100 C   0  0  0  0  0  0  0  0  0  0  0  0
   26.5300   26.2400   32.2200 N   0  0  0  0  0  0  0  0  0  0  0  0
   23.1834   25.2689   36.0167 C   0  0  0  0  0  0  0  0  0  0  0  0
   23.1686   24.0692   35.3740 N   0  0  0  0  0  0  0  0  0  0  0  0
   22.2556   23.0906   35.6196 C   0  0  0  0  0  0  0  0  0  0  0  0
   22.4726   21.7774   34.8909 C   0  0  0  0  0  0  0  0  0  0  0  0
   21.2671   20.8396   34.7449 C   0  0  0  0  0  0  0  0  0  0  0  0
   20.0221   21.6177   34.5818 N   0  0  0  0  0  0  0  0  0  0  0  0
   19.1285   20.9842   33.5991 C   0  0  0  0  0  0  0  0  0  0  0  0
   19.3234   21.7546   35.8737 C   0  0  0  0  0  0  0  0  0  0  0  0
   20.2121   22.3374   36.9390 C   0  0  0  0  0  0  0  0  0  0  0  0
   19.9669   22.0724   38.1469 O   0  0  0  0  0  0  0  0  0  0  0  0
   21.2720   23.3123   36.6144 C   0  0  0  0  0  0  0  0  0  0  0  0
   21.2849   24.5277   37.3138 C   0  0  0  0  0  0  0  0  0  0  0  0
   22.2285   25.5204   37.0213 C   0  0  0  0  0  0  0  0  0  0  0  0
   22.1978   26.8228   37.7749 C   0  0  0  0  0  0  0  0  0  0  0  0
  1  2  1  0
  2  3  2  0
  2  4  1  0
  4  5  2  0
  5  6  1  0
  6  7  2  0
  7  8  1  0
  8  9  2  0
  9 10  1  0
 10 11  2  0
 11 12  1  0
 12 13  2  0
 13 14  1  0
  1 15  1  0
 15 16  2  0
 16 17  1  0
 17 18  1  0
 18 19  1  0
 19 20  1  0
 20 21  1  0
 20 22  1  0
 22 23  1  0
 23 24  2  0
 23 25  1  0
 25 26  1  0
 26 27  2  0
 27 28  1  0
 13  4  1  0
 27 15  1  0
 12  7  1  0
 25 17  2  0
M  END
>  <AAScore>  (1) 
554.2397662418956

>  <RootName>  (1) 
./4ZLY/04_DeltaGEst/trajectory_04/rank_00/lead_0231

$$$$
