confid_0
     RDKit          3D

 29 32  0  0  0  0  0  0  0  0999 V2000
   24.5700   26.8800   35.5900 N   0  0  0  0  0  0  0  0  0  0  0  0
   25.5000   26.4000   34.6900 C   0  0  0  0  0  0  0  0  0  0  0  0
   25.1700   25.5200   33.9100 O   0  0  0  0  0  0  0  0  0  0  0  0
   26.8400   27.0200   34.7400 C   0  0  0  0  0  0  0  0  0  0  0  0
   27.3800   27.2800   35.9400 N   0  0  0  0  0  0  0  0  0  0  0  0
   28.6200   27.7400   36.0300 N   0  0  0  0  0  0  0  0  0  0  0  0
   29.3800   28.0000   34.9600 C   0  0  0  0  0  0  0  0  0  0  0  0
   30.6700   28.5000   35.1300 C   0  0  0  0  0  0  0  0  0  0  0  0
   31.5400   28.6100   34.0300 C   0  0  0  0  0  0  0  0  0  0  0  0
   31.0900   28.2200   32.7700 C   0  0  0  0  0  0  0  0  0  0  0  0
   29.8000   27.7000   32.6000 C   0  0  0  0  0  0  0  0  0  0  0  0
   28.9600   27.5500   33.7100 C   0  0  0  0  0  0  0  0  0  0  0  0
   27.6600   27.0300   33.5900 C   0  0  0  0  0  0  0  0  0  0  0  0
   27.1600   26.7400   32.3400 N   0  0  0  0  0  0  0  0  0  0  0  0
   33.1580   29.2686   34.2410 S   0  0  0  0  0  6  0  0  0  0  0  0
   34.0628   28.7538   33.1552 O   0  0  0  0  0  0  0  0  0  0  0  0
   33.7077   28.8334   35.5704 O   0  0  0  0  0  0  0  0  0  0  0  0
   33.0675   31.0581   34.1915 C   0  0  2  0  0  0  0  0  0  0  0  0
   32.8020   31.6157   32.7994 C   0  0  0  0  0  0  0  0  0  0  0  0
   34.0563   32.3783   32.7893 N   0  0  0  0  0  0  0  0  0  0  0  0
   34.4234   31.7461   34.0682 C   0  0  1  0  0  0  0  0  0  0  0  0
   34.7232   32.8192   35.1219 C   0  0  0  0  0  0  0  0  0  0  0  0
   36.2154   33.2373   35.1614 C   0  0  0  0  0  0  0  0  0  0  0  0
   36.9900   33.2198   33.8107 C   0  0  2  0  0  0  0  0  0  0  0  0
   38.4313   33.6985   34.0420 C   0  0  0  0  0  0  0  0  0  0  0  0
   36.3033   34.0657   32.6990 C   0  0  0  0  0  0  0  0  0  0  0  0
   35.9415   33.2462   31.4261 C   0  0  2  0  0  0  0  0  0  0  0  0
   35.3433   34.1875   30.3692 C   0  0  0  0  0  0  0  0  0  0  0  0
   34.9804   32.0516   31.6875 C   0  0  0  0  0  0  0  0  0  0  0  0
  1  2  1  0
  2  3  2  0
  2  4  1  0
  4  5  2  0
  5  6  1  0
  6  7  2  0
  7  8  1  0
  8  9  2  0
  9 10  1  0
 10 11  2  0
 11 12  1  0
 12 13  2  0
 13 14  1  0
  9 15  1  0
 15 16  2  0
 15 17  2  0
 18 15  1  6
 18 19  1  0
 19 20  1  0
 20 21  1  0
 21 22  1  1
 22 23  1  0
 23 24  1  0
 24 25  1  1
 24 26  1  0
 26 27  1  0
 27 28  1  6
 20 29  1  0
 13  4  1  0
 21 18  1  0
 29 27  1  0
 12  7  1  0
M  END
>  <AAScore>  (1) 
-5.644375496951565

>  <RootName>  (1) 
./4ZLY/04_DeltaGEst/trajectory_05/rank_01/lead_0369

$$$$
