confid_8
     RDKit          3D

 29 32  0  0  0  0  0  0  0  0999 V2000
   24.4800   26.1000   36.1300 N   0  0  0  0  0  0  0  0  0  0  0  0
   25.2500   26.2500   34.9900 C   0  0  0  0  0  0  0  0  0  0  0  0
   24.7400   25.7600   33.9900 O   0  0  0  0  0  0  0  0  0  0  0  0
   26.5900   26.8900   34.9600 C   0  0  0  0  0  0  0  0  0  0  0  0
   27.0600   27.2400   36.1600 N   0  0  0  0  0  0  0  0  0  0  0  0
   28.3000   27.7100   36.2400 N   0  0  0  0  0  0  0  0  0  0  0  0
   29.0500   27.9600   35.1500 C   0  0  0  0  0  0  0  0  0  0  0  0
   30.3400   28.4900   35.2600 C   0  0  0  0  0  0  0  0  0  0  0  0
   31.1100   28.8200   34.1400 C   0  0  0  0  0  0  0  0  0  0  0  0
   30.5200   28.6700   32.8800 C   0  0  0  0  0  0  0  0  0  0  0  0
   29.2900   28.0200   32.7700 C   0  0  0  0  0  0  0  0  0  0  0  0
   28.5200   27.7100   33.8900 C   0  0  0  0  0  0  0  0  0  0  0  0
   27.2700   27.0800   33.7600 C   0  0  0  0  0  0  0  0  0  0  0  0
   26.7500   26.8800   32.4900 N   0  0  0  0  0  0  0  0  0  0  0  0
   23.5140   25.0580   36.3550 C   0  0  0  0  0  0  0  0  0  0  0  0
   22.5744   25.0807   37.3807 C   0  0  0  0  0  0  0  0  0  0  0  0
   21.8049   23.9148   37.4212 C   0  0  0  0  0  0  0  0  0  0  0  0
   20.7421   23.6045   38.3797 C   0  0  0  0  0  0  0  0  0  0  0  0
   20.5292   24.3650   39.3617 O   0  0  0  0  0  0  0  0  0  0  0  0
   19.9699   22.3988   38.1896 N   0  0  0  0  0  0  0  0  0  0  0  0
   18.9875   21.9780   39.1976 C   0  0  0  0  0  0  0  0  0  0  0  0
   17.7069   22.8119   39.0934 C   0  0  0  0  0  0  0  0  0  0  0  0
   17.0240   22.5331   37.8085 N   0  0  0  0  0  0  0  0  0  0  0  0
   16.5388   23.7783   37.1832 C   0  0  0  0  0  0  0  0  0  0  0  0
   15.9007   21.5939   37.9971 C   0  0  0  0  0  0  0  0  0  0  0  0
   20.0615   21.6812   36.8998 C   0  0  0  0  0  0  0  0  0  0  0  0
   21.5128   21.6294   36.3766 C   0  0  0  0  0  0  0  0  0  0  0  0
   22.1279   22.9950   36.4411 C   0  0  0  0  0  0  0  0  0  0  0  0
   23.4143   23.5805   35.5285 S   0  0  0  0  0  0  0  0  0  0  0  0
  1  2  1  0
  2  3  2  0
  2  4  1  0
  4  5  2  0
  5  6  1  0
  6  7  2  0
  7  8  1  0
  8  9  2  0
  9 10  1  0
 10 11  2  0
 11 12  1  0
 12 13  2  0
 13 14  1  0
  1 15  1  0
 15 16  2  0
 16 17  1  0
 17 18  1  0
 18 19  2  0
 18 20  1  0
 20 21  1  0
 21 22  1  0
 22 23  1  0
 23 24  1  0
 23 25  1  0
 20 26  1  0
 26 27  1  0
 27 28  1  0
 28 29  1  0
 13  4  1  0
 29 15  1  0
 12  7  1  0
 28 17  2  0
M  END
>  <AAScore>  (1) 
13488.197784465294

>  <RootName>  (1) 
./4ZLY/04_DeltaGEst/trajectory_00/rank_00/lead_0171

$$$$
