confid_9
     RDKit          3D

 29 32  0  0  0  0  0  0  0  0999 V2000
   25.3300   26.2600   34.7600 N   0  0  0  0  0  0  0  0  0  0  0  0
   26.1200   25.9200   33.6900 C   0  0  0  0  0  0  0  0  0  0  0  0
   25.6300   25.1100   32.9400 O   0  0  0  0  0  0  0  0  0  0  0  0
   27.5200   26.3800   33.4600 C   0  0  0  0  0  0  0  0  0  0  0  0
   28.1600   26.6300   34.6100 N   0  0  0  0  0  0  0  0  0  0  0  0
   29.4800   26.8500   34.5700 N   0  0  0  0  0  0  0  0  0  0  0  0
   30.1900   26.7800   33.4400 C   0  0  0  0  0  0  0  0  0  0  0  0
   31.5600   27.0500   33.5000 C   0  0  0  0  0  0  0  0  0  0  0  0
   32.2700   27.2400   32.3100 C   0  0  0  0  0  0  0  0  0  0  0  0
   31.6100   27.2500   31.0800 C   0  0  0  0  0  0  0  0  0  0  0  0
   30.2700   26.8700   31.0600 C   0  0  0  0  0  0  0  0  0  0  0  0
   29.5100   26.6900   32.2300 C   0  0  0  0  0  0  0  0  0  0  0  0
   28.1400   26.4100   32.2000 C   0  0  0  0  0  0  0  0  0  0  0  0
   27.4300   26.1300   31.0500 N   0  0  0  0  0  0  0  0  0  0  0  0
   26.4270   27.0738   30.5501 C   0  0  0  0  0  0  0  0  0  0  0  0
   26.5073   27.1514   29.0248 C   0  0  0  0  0  0  0  0  0  0  0  0
   26.4164   25.7983   28.4384 N   0  0  0  0  0  0  0  0  0  0  0  0
   26.3841   25.8895   26.9646 C   0  0  0  0  0  0  0  0  0  0  0  0
   25.9037   24.6029   26.3700 C   0  0  0  0  0  0  0  0  0  0  0  0
   24.6677   24.0994   26.5874 N   0  0  0  0  0  0  0  0  0  0  0  0
   24.4847   22.9111   25.9535 C   0  0  0  0  0  0  0  0  0  0  0  0
   25.5897   22.4695   25.2284 C   0  0  0  0  0  0  0  0  0  0  0  0
   25.6994   21.2880   24.4854 O   0  0  0  0  0  0  0  0  0  0  0  0
   24.6314   20.3609   24.2877 C   0  0  0  0  0  0  0  0  0  0  0  0
   23.6457   20.9032   23.2484 C   0  0  0  0  0  0  0  0  0  0  0  0
   25.2156   19.0287   23.8220 C   0  0  0  0  0  0  0  0  0  0  0  0
   26.8271   23.5934   25.3875 S   0  0  0  0  0  0  0  0  0  0  0  0
   27.5631   24.9765   28.8858 C   0  0  0  0  0  0  0  0  0  0  0  0
   27.5467   24.8168   30.4084 C   0  0  0  0  0  0  0  0  0  0  0  0
  1  2  1  0
  2  3  2  0
  2  4  1  0
  4  5  2  0
  5  6  1  0
  6  7  2  0
  7  8  1  0
  8  9  2  0
  9 10  1  0
 10 11  2  0
 11 12  1  0
 12 13  2  0
 13 14  1  0
 14 15  1  0
 15 16  1  0
 16 17  1  0
 17 18  1  0
 18 19  1  0
 19 20  2  0
 20 21  1  0
 21 22  2  0
 22 23  1  0
 23 24  1  0
 24 25  1  0
 24 26  1  0
 22 27  1  0
 17 28  1  0
 28 29  1  0
 13  4  1  0
 29 14  1  0
 12  7  1  0
 27 19  1  0
M  END
>  <AAScore>  (1) 
19.771803536163297

>  <RootName>  (1) 
./4ZLY/04_DeltaGEst/trajectory_03/rank_01/lead_0330

$$$$
