confid_5
     RDKit          3D

 28 31  0  0  0  0  0  0  0  0999 V2000
   24.5500   26.3900   36.2500 N   0  0  0  0  0  0  0  0  0  0  0  0
   25.6000   26.1300   35.4000 C   0  0  0  0  0  0  0  0  0  0  0  0
   25.4300   25.4300   34.4200 O   0  0  0  0  0  0  0  0  0  0  0  0
   26.9800   26.6300   35.7100 C   0  0  0  0  0  0  0  0  0  0  0  0
   27.3200   26.8200   36.9800 N   0  0  0  0  0  0  0  0  0  0  0  0
   28.4700   27.4000   37.3100 N   0  0  0  0  0  0  0  0  0  0  0  0
   29.4000   27.6300   36.3700 C   0  0  0  0  0  0  0  0  0  0  0  0
   30.6600   28.0500   36.8000 C   0  0  0  0  0  0  0  0  0  0  0  0
   31.5700   28.3600   35.7800 C   0  0  0  0  0  0  0  0  0  0  0  0
   31.3700   28.1000   34.4300 C   0  0  0  0  0  0  0  0  0  0  0  0
   30.1200   27.5900   34.0500 C   0  0  0  0  0  0  0  0  0  0  0  0
   29.1500   27.3400   35.0300 C   0  0  0  0  0  0  0  0  0  0  0  0
   27.8800   26.8900   34.6600 C   0  0  0  0  0  0  0  0  0  0  0  0
   27.4800   26.6100   33.3700 N   0  0  0  0  0  0  0  0  0  0  0  0
   31.0062   28.3133   38.2193 C   0  0  0  0  0  0  0  0  0  0  0  0
   30.1911   29.1298   39.0208 C   0  0  0  0  0  0  0  0  0  0  0  0
   30.5262   29.3773   40.3608 C   0  0  0  0  0  0  0  0  0  0  0  0
   29.6818   30.3116   41.1883 C   0  0  0  0  0  0  0  0  0  0  0  0
   29.7174   29.9334   42.6736 C   0  0  0  0  0  0  0  0  0  0  0  0
   31.1022   29.7955   43.1523 N   0  0  0  0  0  0  0  0  0  0  0  0
   31.4576   30.1820   44.4985 C   0  0  0  0  0  0  0  0  0  0  0  0
   32.6552   30.4593   44.7793 O   0  0  0  0  0  0  0  0  0  0  0  0
   30.4232   30.3081   45.5761 C   0  0  0  0  0  0  0  0  0  0  0  0
   32.0547   29.1154   42.3067 C   0  0  0  0  0  0  0  0  0  0  0  0
   33.1686   28.7427   42.7681 O   0  0  0  0  0  0  0  0  0  0  0  0
   31.7099   28.8363   40.8961 C   0  0  0  0  0  0  0  0  0  0  0  0
   32.5342   28.0363   40.0885 C   0  0  0  0  0  0  0  0  0  0  0  0
   32.1845   27.7786   38.7611 C   0  0  0  0  0  0  0  0  0  0  0  0
  1  2  1  0
  2  3  2  0
  2  4  1  0
  4  5  2  0
  5  6  1  0
  6  7  2  0
  7  8  1  0
  8  9  2  0
  9 10  1  0
 10 11  2  0
 11 12  1  0
 12 13  2  0
 13 14  1  0
  8 15  1  0
 15 16  2  0
 16 17  1  0
 17 18  1  0
 18 19  1  0
 19 20  1  0
 20 21  1  0
 21 22  2  0
 21 23  1  0
 20 24  1  0
 24 25  2  0
 24 26  1  0
 26 27  1  0
 27 28  2  0
 13  4  1  0
 28 15  1  0
 12  7  1  0
 26 17  2  0
M  END
>  <AAScore>  (1) 
2751.4451189079505

>  <RootName>  (1) 
./4ZLY/04_DeltaGEst/trajectory_01/rank_01/lead_0238

$$$$
