confid_18
     RDKit          3D

 28 31  0  0  0  0  0  0  0  0999 V2000
   24.5500   26.3900   36.2500 N   0  0  0  0  0  0  0  0  0  0  0  0
   25.6000   26.1300   35.4000 C   0  0  0  0  0  0  0  0  0  0  0  0
   25.4300   25.4300   34.4200 O   0  0  0  0  0  0  0  0  0  0  0  0
   26.9800   26.6300   35.7100 C   0  0  0  0  0  0  0  0  0  0  0  0
   27.3200   26.8200   36.9800 N   0  0  0  0  0  0  0  0  0  0  0  0
   28.4700   27.4000   37.3100 N   0  0  0  0  0  0  0  0  0  0  0  0
   29.4000   27.6300   36.3700 C   0  0  0  0  0  0  0  0  0  0  0  0
   30.6600   28.0500   36.8000 C   0  0  0  0  0  0  0  0  0  0  0  0
   31.5700   28.3600   35.7800 C   0  0  0  0  0  0  0  0  0  0  0  0
   31.3700   28.1000   34.4300 C   0  0  0  0  0  0  0  0  0  0  0  0
   30.1200   27.5900   34.0500 C   0  0  0  0  0  0  0  0  0  0  0  0
   29.1500   27.3400   35.0300 C   0  0  0  0  0  0  0  0  0  0  0  0
   27.8800   26.8900   34.6600 C   0  0  0  0  0  0  0  0  0  0  0  0
   27.4800   26.6100   33.3700 N   0  0  0  0  0  0  0  0  0  0  0  0
   30.9733   28.2840   38.1874 N   0  0  0  0  0  0  0  0  0  0  0  0
   31.5252   29.5879   38.5842 C   0  0  0  0  0  0  0  0  0  0  0  0
   31.1008   29.9818   40.0015 C   0  0  0  0  0  0  0  0  0  0  0  0
   31.9000   29.2785   41.0643 C   0  0  0  0  0  0  0  0  0  0  0  0
   32.2579   29.9037   42.2072 N   0  0  0  0  0  0  0  0  0  0  0  0
   32.9067   28.9647   42.9195 C   0  0  0  0  0  0  0  0  0  0  0  0
   32.9275   27.7868   42.2075 C   0  0  0  0  0  0  0  0  0  0  0  0
   33.5548   26.5006   42.6756 C   0  0  0  0  0  0  0  0  0  0  0  0
   32.5189   25.5523   43.3166 C   0  0  0  0  0  0  0  0  0  0  0  0
   31.9906   26.1085   44.6472 C   0  0  0  0  0  0  0  0  0  0  0  0
   33.1378   24.1668   43.5368 C   0  0  0  0  0  0  0  0  0  0  0  0
   32.2658   27.9704   41.0444 N   0  0  0  0  0  0  0  0  0  0  0  0
   32.1510   26.9987   39.9464 C   0  0  0  0  0  0  0  0  0  0  0  0
   30.8576   27.1760   39.1475 C   0  0  0  0  0  0  0  0  0  0  0  0
  1  2  1  0
  2  3  2  0
  2  4  1  0
  4  5  2  0
  5  6  1  0
  6  7  2  0
  7  8  1  0
  8  9  2  0
  9 10  1  0
 10 11  2  0
 11 12  1  0
 12 13  2  0
 13 14  1  0
  8 15  1  0
 15 16  1  0
 16 17  1  0
 17 18  1  0
 18 19  2  0
 19 20  1  0
 20 21  2  0
 21 22  1  0
 22 23  1  0
 23 24  1  0
 23 25  1  0
 21 26  1  0
 26 27  1  0
 27 28  1  0
 13  4  1  0
 28 15  1  0
 12  7  1  0
 26 18  1  0
M  END
>  <AAScore>  (1) 
550.4532969630778

>  <RootName>  (1) 
./4ZLY/04_DeltaGEst/trajectory_01/rank_01/lead_0260

$$$$
