confid_14
     RDKit          3D

 29 33  0  0  0  0  0  0  0  0999 V2000
   25.3300   26.2600   34.7600 N   0  0  0  0  0  0  0  0  0  0  0  0
   26.1200   25.9200   33.6900 C   0  0  0  0  0  0  0  0  0  0  0  0
   25.6300   25.1100   32.9400 O   0  0  0  0  0  0  0  0  0  0  0  0
   27.5200   26.3800   33.4600 C   0  0  0  0  0  0  0  0  0  0  0  0
   28.1600   26.6300   34.6100 N   0  0  0  0  0  0  0  0  0  0  0  0
   29.4800   26.8500   34.5700 N   0  0  0  0  0  0  0  0  0  0  0  0
   30.1900   26.7800   33.4400 C   0  0  0  0  0  0  0  0  0  0  0  0
   31.5600   27.0500   33.5000 C   0  0  0  0  0  0  0  0  0  0  0  0
   32.2700   27.2400   32.3100 C   0  0  0  0  0  0  0  0  0  0  0  0
   31.6100   27.2500   31.0800 C   0  0  0  0  0  0  0  0  0  0  0  0
   30.2700   26.8700   31.0600 C   0  0  0  0  0  0  0  0  0  0  0  0
   29.5100   26.6900   32.2300 C   0  0  0  0  0  0  0  0  0  0  0  0
   28.1400   26.4100   32.2000 C   0  0  0  0  0  0  0  0  0  0  0  0
   27.4300   26.1300   31.0500 N   0  0  0  0  0  0  0  0  0  0  0  0
   27.6135   24.8249   30.4019 C   0  0  0  0  0  0  0  0  0  0  0  0
   26.3524   24.4190   29.6496 C   0  0  0  0  0  0  0  0  0  0  0  0
   25.9910   25.4610   28.6894 N   0  0  0  0  0  0  0  0  0  0  0  0
   25.4137   25.0839   27.4249 C   0  0  0  0  0  0  0  0  0  0  0  0
   25.7476   25.7648   26.2460 C   0  0  0  0  0  0  0  0  0  0  0  0
   25.1681   25.3502   25.0477 C   0  0  0  0  0  0  0  0  0  0  0  0
   24.3123   24.2962   25.0362 N   0  0  0  0  0  0  0  0  0  0  0  0
   24.0163   23.6247   26.1806 C   0  0  0  0  0  0  0  0  0  0  0  0
   24.5593   24.0262   27.3608 N   0  0  0  0  0  0  0  0  0  0  0  0
   23.0453   22.4854   26.1522 C   0  0  0  0  0  0  0  0  0  0  0  0
   23.5728   21.1859   26.7430 C   0  0  0  0  0  0  0  0  0  0  0  0
   23.4404   21.3353   25.2371 C   0  0  0  0  0  0  0  0  0  0  0  0
   26.0482   26.8386   29.1091 C   0  0  0  0  0  0  0  0  0  0  0  0
   25.5158   27.7414   28.4076 O   0  0  0  0  0  0  0  0  0  0  0  0
   26.6855   27.2285   30.4151 C   0  0  0  0  0  0  0  0  0  0  0  0
  1  2  1  0
  2  3  2  0
  2  4  1  0
  4  5  2  0
  5  6  1  0
  6  7  2  0
  7  8  1  0
  8  9  2  0
  9 10  1  0
 10 11  2  0
 11 12  1  0
 12 13  2  0
 13 14  1  0
 14 15  1  0
 15 16  1  0
 16 17  1  0
 17 18  1  0
 18 19  2  0
 19 20  1  0
 20 21  2  0
 21 22  1  0
 22 23  2  0
 22 24  1  0
 24 25  1  0
 25 26  1  0
 17 27  1  0
 27 28  2  0
 27 29  1  0
 13  4  1  0
 29 14  1  0
 12  7  1  0
 23 18  1  0
 26 24  1  0
M  END
>  <AAScore>  (1) 
128.04443690642898

>  <RootName>  (1) 
./4ZLY/04_DeltaGEst/trajectory_03/rank_01/lead_0112

$$$$
