confid_5
     RDKit          3D

 28 31  0  0  0  0  0  0  0  0999 V2000
   24.5500   26.3900   36.2500 N   0  0  0  0  0  0  0  0  0  0  0  0
   25.6000   26.1300   35.4000 C   0  0  0  0  0  0  0  0  0  0  0  0
   25.4300   25.4300   34.4200 O   0  0  0  0  0  0  0  0  0  0  0  0
   26.9800   26.6300   35.7100 C   0  0  0  0  0  0  0  0  0  0  0  0
   27.3200   26.8200   36.9800 N   0  0  0  0  0  0  0  0  0  0  0  0
   28.4700   27.4000   37.3100 N   0  0  0  0  0  0  0  0  0  0  0  0
   29.4000   27.6300   36.3700 C   0  0  0  0  0  0  0  0  0  0  0  0
   30.6600   28.0500   36.8000 C   0  0  0  0  0  0  0  0  0  0  0  0
   31.5700   28.3600   35.7800 C   0  0  0  0  0  0  0  0  0  0  0  0
   31.3700   28.1000   34.4300 C   0  0  0  0  0  0  0  0  0  0  0  0
   30.1200   27.5900   34.0500 C   0  0  0  0  0  0  0  0  0  0  0  0
   29.1500   27.3400   35.0300 C   0  0  0  0  0  0  0  0  0  0  0  0
   27.8800   26.8900   34.6600 C   0  0  0  0  0  0  0  0  0  0  0  0
   27.4800   26.6100   33.3700 N   0  0  0  0  0  0  0  0  0  0  0  0
   30.9986   28.2770   38.2270 C   0  0  0  0  0  0  0  0  0  0  0  0
   30.9197   27.2080   39.1291 C   0  0  0  0  0  0  0  0  0  0  0  0
   31.2502   27.3709   40.4771 C   0  0  0  0  0  0  0  0  0  0  0  0
   31.1635   26.2382   41.2982 O   0  0  0  0  0  0  0  0  0  0  0  0
   31.8602   26.0721   42.5262 C   0  0  0  0  0  0  0  0  0  0  0  0
   31.2145   26.8770   43.6620 C   0  0  0  0  0  0  0  0  0  0  0  0
   30.9644   28.3007   43.3459 N   0  0  0  0  0  0  0  0  0  0  0  0
   31.9299   28.9241   42.4168 C   0  0  0  0  0  0  0  0  0  0  0  0
   31.6309   28.6491   40.9531 C   0  0  0  0  0  0  0  0  0  0  0  0
   31.7272   29.7152   40.0412 C   0  0  0  0  0  0  0  0  0  0  0  0
   31.4094   29.5427   38.6814 C   0  0  0  0  0  0  0  0  0  0  0  0
   31.4717   30.6070   37.7656 O   0  0  0  0  0  0  0  0  0  0  0  0
   31.8690   31.9349   38.0907 C   0  0  0  0  0  0  0  0  0  0  0  0
   29.5558   28.5904   43.0268 C   0  0  0  0  0  0  0  0  0  0  0  0
  1  2  1  0
  2  3  2  0
  2  4  1  0
  4  5  2  0
  5  6  1  0
  6  7  2  0
  7  8  1  0
  8  9  2  0
  9 10  1  0
 10 11  2  0
 11 12  1  0
 12 13  2  0
 13 14  1  0
  8 15  1  0
 15 16  2  0
 16 17  1  0
 17 18  1  0
 18 19  1  0
 19 20  1  0
 20 21  1  0
 21 22  1  0
 22 23  1  0
 23 24  1  0
 24 25  2  0
 25 26  1  0
 26 27  1  0
 21 28  1  0
 13  4  1  0
 25 15  1  0
 12  7  1  0
 23 17  2  0
M  END
>  <AAScore>  (1) 
19.28578854127831

>  <RootName>  (1) 
./4ZLY/04_DeltaGEst/trajectory_01/rank_01/lead_0448

$$$$
