confid_13
     RDKit          3D

 29 32  0  0  0  0  0  0  0  0999 V2000
   24.6900   26.1200   35.5300 N   0  0  0  0  0  0  0  0  0  0  0  0
   25.6600   25.6700   34.6600 C   0  0  0  0  0  0  0  0  0  0  0  0
   25.2400   25.0100   33.7200 O   0  0  0  0  0  0  0  0  0  0  0  0
   27.0300   26.2200   34.8800 C   0  0  0  0  0  0  0  0  0  0  0  0
   27.3500   26.7300   36.0700 N   0  0  0  0  0  0  0  0  0  0  0  0
   28.5700   27.1800   36.3300 N   0  0  0  0  0  0  0  0  0  0  0  0
   29.5300   27.1100   35.3900 C   0  0  0  0  0  0  0  0  0  0  0  0
   30.8300   27.5700   35.6500 C   0  0  0  0  0  0  0  0  0  0  0  0
   31.8500   27.5400   34.6900 C   0  0  0  0  0  0  0  0  0  0  0  0
   31.5100   27.1200   33.4000 C   0  0  0  0  0  0  0  0  0  0  0  0
   30.2200   26.6300   33.1100 C   0  0  0  0  0  0  0  0  0  0  0  0
   29.2400   26.6600   34.1000 C   0  0  0  0  0  0  0  0  0  0  0  0
   27.9300   26.2600   33.8100 C   0  0  0  0  0  0  0  0  0  0  0  0
   27.5200   25.7100   32.6100 N   0  0  0  0  0  0  0  0  0  0  0  0
   23.3564   26.5026   35.1344 C   0  0  0  0  0  0  0  0  0  0  0  0
   23.0710   26.6225   33.8697 N   0  0  0  0  0  0  0  0  0  0  0  0
   21.8001   26.9757   33.3198 C   0  0  0  0  0  0  0  0  0  0  0  0
   21.6118   28.0886   32.5851 C   0  0  0  0  0  0  0  0  0  0  0  0
   20.3759   28.2018   31.7495 C   0  0  0  0  0  0  0  0  0  0  0  0
   20.4636   29.4886   30.9390 C   0  0  0  0  0  0  0  0  0  0  0  0
   22.2019   30.0265   30.8890 S   0  0  0  0  0  0  0  0  0  0  0  0
   22.5276   29.3026   32.5368 C   0  0  2  0  0  0  0  0  0  0  0  0
   24.0337   28.9802   32.5853 C   0  0  0  0  0  0  0  0  0  0  0  0
   22.1467   30.3755   33.6095 C   0  0  0  0  0  0  0  0  0  0  0  0
   21.7523   29.8628   35.0138 C   0  0  0  0  0  0  0  0  0  0  0  0
   22.9198   29.4672   35.8777 C   0  0  0  0  0  0  0  0  0  0  0  0
   23.8941   30.2597   35.9950 O   0  0  0  0  0  0  0  0  0  0  0  0
   22.8824   28.2857   36.6954 N   0  0  0  0  0  0  0  0  0  0  0  0
   22.4159   26.9884   36.2055 C   0  0  0  0  0  0  0  0  0  0  0  0
  1  2  1  0
  2  3  2  0
  2  4  1  0
  4  5  2  0
  5  6  1  0
  6  7  2  0
  7  8  1  0
  8  9  2  0
  9 10  1  0
 10 11  2  0
 11 12  1  0
 12 13  2  0
 13 14  1  0
  1 15  1  0
 15 16  2  0
 16 17  1  0
 17 18  2  0
 18 19  1  0
 19 20  1  0
 20 21  1  0
 21 22  1  0
 22 23  1  6
 22 24  1  0
 24 25  1  0
 25 26  1  0
 26 27  2  0
 26 28  1  0
 28 29  1  0
 13  4  1  0
 29 15  1  0
 12  7  1  0
 22 18  1  0
M  END
>  <AAScore>  (1) 
2491.7153475900377

>  <RootName>  (1) 
./4ZLY/04_DeltaGEst/trajectory_02/rank_00/lead_0306

$$$$
