confid_3
     RDKit          3D

 28 31  0  0  0  0  0  0  0  0999 V2000
   24.6900   26.1200   35.5300 N   0  0  0  0  0  0  0  0  0  0  0  0
   25.6600   25.6700   34.6600 C   0  0  0  0  0  0  0  0  0  0  0  0
   25.2400   25.0100   33.7200 O   0  0  0  0  0  0  0  0  0  0  0  0
   27.0300   26.2200   34.8800 C   0  0  0  0  0  0  0  0  0  0  0  0
   27.3500   26.7300   36.0700 N   0  0  0  0  0  0  0  0  0  0  0  0
   28.5700   27.1800   36.3300 N   0  0  0  0  0  0  0  0  0  0  0  0
   29.5300   27.1100   35.3900 C   0  0  0  0  0  0  0  0  0  0  0  0
   30.8300   27.5700   35.6500 C   0  0  0  0  0  0  0  0  0  0  0  0
   31.8500   27.5400   34.6900 C   0  0  0  0  0  0  0  0  0  0  0  0
   31.5100   27.1200   33.4000 C   0  0  0  0  0  0  0  0  0  0  0  0
   30.2200   26.6300   33.1100 C   0  0  0  0  0  0  0  0  0  0  0  0
   29.2400   26.6600   34.1000 C   0  0  0  0  0  0  0  0  0  0  0  0
   27.9300   26.2600   33.8100 C   0  0  0  0  0  0  0  0  0  0  0  0
   27.5200   25.7100   32.6100 N   0  0  0  0  0  0  0  0  0  0  0  0
   31.1440   28.0661   36.9574 N   0  0  0  0  0  0  0  0  0  0  0  0
   31.1113   29.5145   37.1967 C   0  0  0  0  0  0  0  0  0  0  0  0
   31.4333   29.8459   38.6571 C   0  0  0  0  0  0  0  0  0  0  0  0
   30.7114   28.9309   39.5478 N   0  0  0  0  0  0  0  0  0  0  0  0
   29.9547   29.4566   40.6462 C   0  0  0  0  0  0  0  0  0  0  0  0
   28.6344   29.8685   40.4265 C   0  0  0  0  0  0  0  0  0  0  0  0
   27.8673   30.3737   41.4778 C   0  0  0  0  0  0  0  0  0  0  0  0
   28.4171   30.4855   42.7626 C   0  0  0  0  0  0  0  0  0  0  0  0
   27.5819   30.9828   43.9051 C   0  0  0  0  0  0  0  0  0  0  0  0
   29.7355   30.0627   42.9897 C   0  0  0  0  0  0  0  0  0  0  0  0
   30.5206   29.5674   41.9343 C   0  0  0  0  0  0  0  0  0  0  0  0
   31.9241   29.1012   42.2102 C   0  0  0  0  0  0  0  0  0  0  0  0
   30.6985   27.4837   39.2986 C   0  0  0  0  0  0  0  0  0  0  0  0
   31.4851   27.1296   38.0328 C   0  0  0  0  0  0  0  0  0  0  0  0
  1  2  1  0
  2  3  2  0
  2  4  1  0
  4  5  2  0
  5  6  1  0
  6  7  2  0
  7  8  1  0
  8  9  2  0
  9 10  1  0
 10 11  2  0
 11 12  1  0
 12 13  2  0
 13 14  1  0
  8 15  1  0
 15 16  1  0
 16 17  1  0
 17 18  1  0
 18 19  1  0
 19 20  2  0
 20 21  1  0
 21 22  2  0
 22 23  1  0
 22 24  1  0
 24 25  2  0
 25 26  1  0
 18 27  1  0
 27 28  1  0
 13  4  1  0
 28 15  1  0
 12  7  1  0
 25 19  1  0
M  END
>  <AAScore>  (1) 
6.060156038125617

>  <RootName>  (1) 
./4ZLY/04_DeltaGEst/trajectory_02/rank_01/lead_0335

$$$$
