confid_5
     RDKit          3D

 28 31  0  0  0  0  0  0  0  0999 V2000
   24.6900   26.1200   35.5300 N   0  0  0  0  0  0  0  0  0  0  0  0
   25.6600   25.6700   34.6600 C   0  0  0  0  0  0  0  0  0  0  0  0
   25.2400   25.0100   33.7200 O   0  0  0  0  0  0  0  0  0  0  0  0
   27.0300   26.2200   34.8800 C   0  0  0  0  0  0  0  0  0  0  0  0
   27.3500   26.7300   36.0700 N   0  0  0  0  0  0  0  0  0  0  0  0
   28.5700   27.1800   36.3300 N   0  0  0  0  0  0  0  0  0  0  0  0
   29.5300   27.1100   35.3900 C   0  0  0  0  0  0  0  0  0  0  0  0
   30.8300   27.5700   35.6500 C   0  0  0  0  0  0  0  0  0  0  0  0
   31.8500   27.5400   34.6900 C   0  0  0  0  0  0  0  0  0  0  0  0
   31.5100   27.1200   33.4000 C   0  0  0  0  0  0  0  0  0  0  0  0
   30.2200   26.6300   33.1100 C   0  0  0  0  0  0  0  0  0  0  0  0
   29.2400   26.6600   34.1000 C   0  0  0  0  0  0  0  0  0  0  0  0
   27.9300   26.2600   33.8100 C   0  0  0  0  0  0  0  0  0  0  0  0
   27.5200   25.7100   32.6100 N   0  0  0  0  0  0  0  0  0  0  0  0
   23.3166   26.3667   35.1696 C   0  0  0  0  0  0  0  0  0  0  0  0
   23.0018   26.5181   33.9130 N   0  0  0  0  0  0  0  0  0  0  0  0
   21.7532   26.7509   33.2353 C   0  0  0  0  0  0  0  0  0  0  0  0
   20.5458   26.4471   33.7162 C   0  0  0  0  0  0  0  0  0  0  0  0
   19.2873   25.9410   33.0676 C   0  0  0  0  0  0  0  0  0  0  0  0
   18.6725   25.5555   34.2536 O   0  0  0  0  0  0  0  0  0  0  0  0
   19.7495   26.0944   34.9564 C   0  0  2  0  0  0  0  0  0  0  0  0
   19.2696   27.3291   35.7815 C   0  0  0  0  0  0  0  0  0  0  0  0
   18.3102   28.2218   35.0409 C   0  0  0  0  0  0  0  0  0  0  0  0
   17.0849   27.8745   34.8829 N   0  0  0  0  0  0  0  0  0  0  0  0
   20.4578   25.0063   35.7958 C   0  0  0  0  0  0  0  0  0  0  0  0
   21.4816   25.5483   36.8073 C   0  0  0  0  0  0  0  0  0  0  0  0
   22.3736   26.6276   36.2587 C   0  0  0  0  0  0  0  0  0  0  0  0
   22.4371   27.7381   36.8510 O   0  0  0  0  0  0  0  0  0  0  0  0
  1  2  1  0
  2  3  2  0
  2  4  1  0
  4  5  2  0
  5  6  1  0
  6  7  2  0
  7  8  1  0
  8  9  2  0
  9 10  1  0
 10 11  2  0
 11 12  1  0
 12 13  2  0
 13 14  1  0
  1 15  1  0
 15 16  2  0
 16 17  1  0
 17 18  2  0
 18 19  1  0
 19 20  1  0
 20 21  1  0
 21 22  1  1
 22 23  1  0
 23 24  2  3
 21 25  1  0
 25 26  1  0
 26 27  1  0
 27 28  2  0
 13  4  1  0
 27 15  1  0
 12  7  1  0
 21 18  1  0
M  END
>  <AAScore>  (1) 
462.349677305832

>  <RootName>  (1) 
./4ZLY/04_DeltaGEst/trajectory_02/rank_00/lead_0076

$$$$
