confid_1
     RDKit          3D

 27 30  0  0  0  0  0  0  0  0999 V2000
   24.4800   26.1000   36.1300 N   0  0  0  0  0  0  0  0  0  0  0  0
   25.2500   26.2500   34.9900 C   0  0  0  0  0  0  0  0  0  0  0  0
   24.7400   25.7600   33.9900 O   0  0  0  0  0  0  0  0  0  0  0  0
   26.5900   26.8900   34.9600 C   0  0  0  0  0  0  0  0  0  0  0  0
   27.0600   27.2400   36.1600 N   0  0  0  0  0  0  0  0  0  0  0  0
   28.3000   27.7100   36.2400 N   0  0  0  0  0  0  0  0  0  0  0  0
   29.0500   27.9600   35.1500 C   0  0  0  0  0  0  0  0  0  0  0  0
   30.3400   28.4900   35.2600 C   0  0  0  0  0  0  0  0  0  0  0  0
   31.1100   28.8200   34.1400 C   0  0  0  0  0  0  0  0  0  0  0  0
   30.5200   28.6700   32.8800 C   0  0  0  0  0  0  0  0  0  0  0  0
   29.2900   28.0200   32.7700 C   0  0  0  0  0  0  0  0  0  0  0  0
   28.5200   27.7100   33.8900 C   0  0  0  0  0  0  0  0  0  0  0  0
   27.2700   27.0800   33.7600 C   0  0  0  0  0  0  0  0  0  0  0  0
   26.7500   26.8800   32.4900 N   0  0  0  0  0  0  0  0  0  0  0  0
   23.0435   25.9862   36.1497 C   0  0  0  0  0  0  0  0  0  0  0  0
   22.3071   26.2574   35.0110 N   0  0  0  0  0  0  0  0  0  0  0  0
   20.9775   26.1388   35.1547 C   0  0  0  0  0  0  0  0  0  0  0  0
   19.6774   26.2254   34.5680 C   0  0  0  0  0  0  0  0  0  0  0  0
   19.0106   25.8551   35.7677 N   0  0  0  0  0  0  0  0  0  0  0  0
   17.6824   25.6386   36.2559 C   0  0  0  0  0  0  0  0  0  0  0  0
   17.5226   25.3334   37.4679 O   0  0  0  0  0  0  0  0  0  0  0  0
   16.4697   25.7434   35.3626 C   0  0  0  0  0  0  0  0  0  0  0  0
   16.3465   27.1338   34.7316 C   0  0  0  0  0  0  0  0  0  0  0  0
   16.4702   24.6445   34.2963 C   0  0  0  0  0  0  0  0  0  0  0  0
   20.3551   25.7809   36.3433 C   0  0  0  0  0  0  0  0  0  0  0  0
   21.0131   25.5125   37.4828 N   0  0  0  0  0  0  0  0  0  0  0  0
   22.3846   25.6190   37.3895 C   0  0  0  0  0  0  0  0  0  0  0  0
  1  2  1  0
  2  3  2  0
  2  4  1  0
  4  5  2  0
  5  6  1  0
  6  7  2  0
  7  8  1  0
  8  9  2  0
  9 10  1  0
 10 11  2  0
 11 12  1  0
 12 13  2  0
 13 14  1  0
  1 15  1  0
 15 16  2  0
 16 17  1  0
 17 18  1  0
 18 19  1  0
 19 20  1  0
 20 21  2  0
 20 22  1  0
 22 23  1  0
 22 24  1  0
 19 25  1  0
 25 26  1  0
 26 27  2  0
 13  4  1  0
 27 15  1  0
 12  7  1  0
 25 17  2  0
M  END
>  <AAScore>  (1) 
2040.047119417649

>  <RootName>  (1) 
./4ZLY/04_DeltaGEst/trajectory_00/rank_01/lead_0494

$$$$
