confid_15
     RDKit          3D

 25 27  0  0  0  0  0  0  0  0999 V2000
   24.5700   26.8800   35.5900 N   0  0  0  0  0  0  0  0  0  0  0  0
   25.5000   26.4000   34.6900 C   0  0  0  0  0  0  0  0  0  0  0  0
   25.1700   25.5200   33.9100 O   0  0  0  0  0  0  0  0  0  0  0  0
   26.8400   27.0200   34.7400 C   0  0  0  0  0  0  0  0  0  0  0  0
   27.3800   27.2800   35.9400 N   0  0  0  0  0  0  0  0  0  0  0  0
   28.6200   27.7400   36.0300 N   0  0  0  0  0  0  0  0  0  0  0  0
   29.3800   28.0000   34.9600 C   0  0  0  0  0  0  0  0  0  0  0  0
   30.6700   28.5000   35.1300 C   0  0  0  0  0  0  0  0  0  0  0  0
   31.5400   28.6100   34.0300 C   0  0  0  0  0  0  0  0  0  0  0  0
   31.0900   28.2200   32.7700 C   0  0  0  0  0  0  0  0  0  0  0  0
   29.8000   27.7000   32.6000 C   0  0  0  0  0  0  0  0  0  0  0  0
   28.9600   27.5500   33.7100 C   0  0  0  0  0  0  0  0  0  0  0  0
   27.6600   27.0300   33.5900 C   0  0  0  0  0  0  0  0  0  0  0  0
   27.1600   26.7400   32.3400 N   0  0  0  0  0  0  0  0  0  0  0  0
   33.1588   29.2679   34.2493 S   0  0  0  0  0  6  0  0  0  0  0  0
   34.0126   28.9137   33.0626 O   0  0  0  0  0  0  0  0  0  0  0  0
   33.7638   28.6482   35.4785 O   0  0  0  0  0  0  0  0  0  0  0  0
   33.0506   31.0045   34.4309 N   0  0  0  0  0  0  0  0  0  0  0  0
   32.5520   31.6113   33.1864 C   0  0  0  0  0  0  0  0  0  0  0  0
   34.3064   31.5997   34.9581 C   0  0  0  0  0  0  0  0  0  0  0  0
   35.4850   31.5939   33.9455 C   0  0  0  0  0  0  0  0  0  0  0  0
   36.6497   32.4343   34.4797 C   0  0  0  0  0  0  0  0  0  0  0  0
   36.2567   33.9104   34.7020 C   0  0  0  0  0  0  0  0  0  0  0  0
   34.7376   34.1383   34.8015 C   0  0  0  0  0  0  0  0  0  0  0  0
   34.0403   33.0064   35.5690 C   0  0  0  0  0  0  0  0  0  0  0  0
  1  2  1  0
  2  3  2  0
  2  4  1  0
  4  5  2  0
  5  6  1  0
  6  7  2  0
  7  8  1  0
  8  9  2  0
  9 10  1  0
 10 11  2  0
 11 12  1  0
 12 13  2  0
 13 14  1  0
  9 15  1  0
 15 16  2  0
 15 17  2  0
 15 18  1  0
 18 19  1  0
 18 20  1  0
 20 21  1  0
 21 22  1  0
 22 23  1  0
 23 24  1  0
 24 25  1  0
 13  4  1  0
 25 20  1  0
 12  7  1  0
M  END
>  <AAScore>  (1) 
-5.853449704056906

>  <RootName>  (1) 
./4ZLY/04_DeltaGEst/trajectory_05/rank_01/lead_0009

$$$$
