confid_13
     RDKit          3D

 28 31  0  0  0  0  0  0  0  0999 V2000
   24.2000   26.2400   35.6900 N   0  0  0  0  0  0  0  0  0  0  0  0
   24.8500   26.2800   34.4800 C   0  0  0  0  0  0  0  0  0  0  0  0
   24.3100   25.7400   33.5400 O   0  0  0  0  0  0  0  0  0  0  0  0
   26.1800   26.9700   34.4700 C   0  0  0  0  0  0  0  0  0  0  0  0
   26.6500   27.6000   35.5500 N   0  0  0  0  0  0  0  0  0  0  0  0
   27.7900   28.2700   35.6200 N   0  0  0  0  0  0  0  0  0  0  0  0
   28.5400   28.3000   34.5100 C   0  0  0  0  0  0  0  0  0  0  0  0
   29.7700   28.9400   34.5600 C   0  0  0  0  0  0  0  0  0  0  0  0
   30.7000   28.8900   33.5000 C   0  0  0  0  0  0  0  0  0  0  0  0
   30.3700   28.1400   32.3700 C   0  0  0  0  0  0  0  0  0  0  0  0
   29.1200   27.5200   32.2800 C   0  0  0  0  0  0  0  0  0  0  0  0
   28.2100   27.6100   33.3300 C   0  0  0  0  0  0  0  0  0  0  0  0
   26.9700   26.9700   33.3100 C   0  0  0  0  0  0  0  0  0  0  0  0
   26.5300   26.2400   32.2200 N   0  0  0  0  0  0  0  0  0  0  0  0
   22.7690   26.1608   35.8397 C   0  0  0  0  0  0  0  0  0  0  0  0
   21.8977   26.7321   34.8926 C   0  0  0  0  0  0  0  0  0  0  0  0
   20.5096   26.6609   35.0695 C   0  0  0  0  0  0  0  0  0  0  0  0
   19.4438   27.3563   33.8522 S   0  0  0  0  0  6  0  0  0  0  0  0
   18.0112   27.2602   34.3029 O   0  0  0  0  0  0  0  0  0  0  0  0
   19.7959   28.8056   33.6659 O   0  0  0  0  0  0  0  0  0  0  0  0
   19.6643   26.5020   32.3464 N   0  0  0  0  0  0  0  0  0  0  0  0
   19.3209   25.0870   32.4839 C   0  0  0  0  0  0  0  0  0  0  0  0
   18.8780   24.6114   31.1088 C   0  0  0  0  0  0  0  0  0  0  0  0
   18.5344   25.8751   30.3351 C   0  0  0  0  0  0  0  0  0  0  0  0
   18.7788   27.0206   31.3049 C   0  0  0  0  0  0  0  0  0  0  0  0
   19.9858   26.0223   36.2015 C   0  0  0  0  0  0  0  0  0  0  0  0
   20.8448   25.4735   37.1561 C   0  0  0  0  0  0  0  0  0  0  0  0
   22.2290   25.5483   36.9808 C   0  0  0  0  0  0  0  0  0  0  0  0
  1  2  1  0
  2  3  2  0
  2  4  1  0
  4  5  2  0
  5  6  1  0
  6  7  2  0
  7  8  1  0
  8  9  2  0
  9 10  1  0
 10 11  2  0
 11 12  1  0
 12 13  2  0
 13 14  1  0
  1 15  1  0
 15 16  2  0
 16 17  1  0
 17 18  1  0
 18 19  2  0
 18 20  2  0
 18 21  1  0
 21 22  1  0
 22 23  1  0
 23 24  1  0
 24 25  1  0
 17 26  2  0
 26 27  1  0
 27 28  2  0
 13  4  1  0
 28 15  1  0
 12  7  1  0
 25 21  1  0
M  END
>  <AAScore>  (1) 
91.12175051839594

>  <RootName>  (1) 
./4ZLY/04_DeltaGEst/trajectory_04/rank_00/lead_0366

$$$$
