confid_14
     RDKit          3D

 29 32  0  0  0  0  0  0  0  0999 V2000
   24.2000   26.2400   35.6900 N   0  0  0  0  0  0  0  0  0  0  0  0
   24.8500   26.2800   34.4800 C   0  0  0  0  0  0  0  0  0  0  0  0
   24.3100   25.7400   33.5400 O   0  0  0  0  0  0  0  0  0  0  0  0
   26.1800   26.9700   34.4700 C   0  0  0  0  0  0  0  0  0  0  0  0
   26.6500   27.6000   35.5500 N   0  0  0  0  0  0  0  0  0  0  0  0
   27.7900   28.2700   35.6200 N   0  0  0  0  0  0  0  0  0  0  0  0
   28.5400   28.3000   34.5100 C   0  0  0  0  0  0  0  0  0  0  0  0
   29.7700   28.9400   34.5600 C   0  0  0  0  0  0  0  0  0  0  0  0
   30.7000   28.8900   33.5000 C   0  0  0  0  0  0  0  0  0  0  0  0
   30.3700   28.1400   32.3700 C   0  0  0  0  0  0  0  0  0  0  0  0
   29.1200   27.5200   32.2800 C   0  0  0  0  0  0  0  0  0  0  0  0
   28.2100   27.6100   33.3300 C   0  0  0  0  0  0  0  0  0  0  0  0
   26.9700   26.9700   33.3100 C   0  0  0  0  0  0  0  0  0  0  0  0
   26.5300   26.2400   32.2200 N   0  0  0  0  0  0  0  0  0  0  0  0
   23.1286   25.3255   35.9851 C   0  0  0  0  0  0  0  0  0  0  0  0
   22.9355   24.1672   35.3243 N   0  0  0  0  0  0  0  0  0  0  0  0
   21.9134   23.5783   35.9786 C   0  0  0  0  0  0  0  0  0  0  0  0
   21.3739   22.2394   35.5557 C   0  0  0  0  0  0  0  0  0  0  0  0
   19.8547   22.1381   35.7726 C   0  0  0  0  0  0  0  0  0  0  0  0
   19.4664   21.7948   37.1624 N   0  0  0  0  0  0  0  0  0  0  0  0
   19.4443   20.3361   37.3670 C   0  0  0  0  0  0  0  0  0  0  0  0
   20.2758   22.4467   38.2162 C   0  0  0  0  0  0  0  0  0  0  0  0
   20.4147   23.9610   38.0020 C   0  0  0  0  0  0  0  0  0  0  0  0
   21.4863   24.2968   37.0505 N   0  0  0  0  0  0  0  0  0  0  0  0
   22.2209   25.4345   37.0274 C   0  0  0  0  0  0  0  0  0  0  0  0
   22.0873   26.5860   37.9976 C   0  0  0  0  0  0  0  0  0  0  0  0
   22.5201   27.7667   37.4238 F   0  0  0  0  0  0  0  0  0  0  0  0
   20.7657   26.7649   38.3626 F   0  0  0  0  0  0  0  0  0  0  0  0
   22.8415   26.3250   39.1259 F   0  0  0  0  0  0  0  0  0  0  0  0
  1  2  1  0
  2  3  2  0
  2  4  1  0
  4  5  2  0
  5  6  1  0
  6  7  2  0
  7  8  1  0
  8  9  2  0
  9 10  1  0
 10 11  2  0
 11 12  1  0
 12 13  2  0
 13 14  1  0
  1 15  1  0
 15 16  1  0
 16 17  2  0
 17 18  1  0
 18 19  1  0
 19 20  1  0
 20 21  1  0
 20 22  1  0
 22 23  1  0
 23 24  1  0
 24 25  1  0
 25 26  1  0
 26 27  1  0
 26 28  1  0
 26 29  1  0
 13  4  1  0
 25 15  2  0
 12  7  1  0
 24 17  1  0
M  END
>  <AAScore>  (1) 
1502.7990660014295

>  <RootName>  (1) 
./4ZLY/04_DeltaGEst/trajectory_04/rank_00/lead_0312

$$$$
