confid_15
     RDKit          3D

 27 30  0  0  0  0  0  0  0  0999 V2000
   24.5500   26.3900   36.2500 N   0  0  0  0  0  0  0  0  0  0  0  0
   25.6000   26.1300   35.4000 C   0  0  0  0  0  0  0  0  0  0  0  0
   25.4300   25.4300   34.4200 O   0  0  0  0  0  0  0  0  0  0  0  0
   26.9800   26.6300   35.7100 C   0  0  0  0  0  0  0  0  0  0  0  0
   27.3200   26.8200   36.9800 N   0  0  0  0  0  0  0  0  0  0  0  0
   28.4700   27.4000   37.3100 N   0  0  0  0  0  0  0  0  0  0  0  0
   29.4000   27.6300   36.3700 C   0  0  0  0  0  0  0  0  0  0  0  0
   30.6600   28.0500   36.8000 C   0  0  0  0  0  0  0  0  0  0  0  0
   31.5700   28.3600   35.7800 C   0  0  0  0  0  0  0  0  0  0  0  0
   31.3700   28.1000   34.4300 C   0  0  0  0  0  0  0  0  0  0  0  0
   30.1200   27.5900   34.0500 C   0  0  0  0  0  0  0  0  0  0  0  0
   29.1500   27.3400   35.0300 C   0  0  0  0  0  0  0  0  0  0  0  0
   27.8800   26.8900   34.6600 C   0  0  0  0  0  0  0  0  0  0  0  0
   27.4800   26.6100   33.3700 N   0  0  0  0  0  0  0  0  0  0  0  0
   23.7121   25.3862   36.8648 C   0  0  0  0  0  0  0  0  0  0  0  0
   22.6475   25.7553   37.5164 N   0  0  0  0  0  0  0  0  0  0  0  0
   21.8282   26.7975   36.9795 C   0  0  0  0  0  0  0  0  0  0  0  0
   21.0373   26.4630   35.9422 C   0  0  0  0  0  0  0  0  0  0  0  0
   20.8574   25.0065   35.6129 C   0  0  0  0  0  0  0  0  0  0  0  0
   21.8948   24.6921   34.6315 N   0  0  0  0  0  0  0  0  0  0  0  0
   21.9753   25.5397   33.4209 C   0  0  0  0  0  0  0  0  0  0  0  0
   20.9855   26.7442   33.4635 C   0  0  0  0  0  0  0  0  0  0  0  0
   20.9152   27.3460   34.8111 N   0  0  0  0  0  0  0  0  0  0  0  0
   20.6838   28.7819   34.9792 C   0  0  0  0  0  0  0  0  0  0  0  0
   23.0336   23.8752   34.9926 C   0  0  0  0  0  0  0  0  0  0  0  0
   23.5068   23.0762   34.1393 O   0  0  0  0  0  0  0  0  0  0  0  0
   23.7099   23.9651   36.3550 C   0  0  0  0  0  0  0  0  0  0  0  0
  1  2  1  0
  2  3  2  0
  2  4  1  0
  4  5  2  0
  5  6  1  0
  6  7  2  0
  7  8  1  0
  8  9  2  0
  9 10  1  0
 10 11  2  0
 11 12  1  0
 12 13  2  0
 13 14  1  0
  1 15  1  0
 15 16  2  0
 16 17  1  0
 17 18  2  0
 18 19  1  0
 19 20  1  0
 20 21  1  0
 21 22  1  0
 22 23  1  0
 23 24  1  0
 20 25  1  0
 25 26  2  0
 25 27  1  0
 13  4  1  0
 27 15  1  0
 12  7  1  0
 23 18  1  0
M  END
>  <AAScore>  (1) 
796.2039564008599

>  <RootName>  (1) 
./4ZLY/04_DeltaGEst/trajectory_01/rank_00/lead_0129

$$$$
