confid_10
     RDKit          3D

 27 30  0  0  0  0  0  0  0  0999 V2000
   25.3300   26.2600   34.7600 N   0  0  0  0  0  0  0  0  0  0  0  0
   26.1200   25.9200   33.6900 C   0  0  0  0  0  0  0  0  0  0  0  0
   25.6300   25.1100   32.9400 O   0  0  0  0  0  0  0  0  0  0  0  0
   27.5200   26.3800   33.4600 C   0  0  0  0  0  0  0  0  0  0  0  0
   28.1600   26.6300   34.6100 N   0  0  0  0  0  0  0  0  0  0  0  0
   29.4800   26.8500   34.5700 N   0  0  0  0  0  0  0  0  0  0  0  0
   30.1900   26.7800   33.4400 C   0  0  0  0  0  0  0  0  0  0  0  0
   31.5600   27.0500   33.5000 C   0  0  0  0  0  0  0  0  0  0  0  0
   32.2700   27.2400   32.3100 C   0  0  0  0  0  0  0  0  0  0  0  0
   31.6100   27.2500   31.0800 C   0  0  0  0  0  0  0  0  0  0  0  0
   30.2700   26.8700   31.0600 C   0  0  0  0  0  0  0  0  0  0  0  0
   29.5100   26.6900   32.2300 C   0  0  0  0  0  0  0  0  0  0  0  0
   28.1400   26.4100   32.2000 C   0  0  0  0  0  0  0  0  0  0  0  0
   27.4300   26.1300   31.0500 N   0  0  0  0  0  0  0  0  0  0  0  0
   23.8914   26.2117   34.7801 C   0  0  0  0  0  0  0  0  0  0  0  0
   23.2549   26.0278   35.9771 N   0  0  0  0  0  0  0  0  0  0  0  0
   21.8994   26.0056   36.0338 C   0  0  0  0  0  0  0  0  0  0  0  0
   21.0507   25.8054   37.2536 C   0  0  0  0  0  0  0  0  0  0  0  0
   19.6855   25.8920   36.7197 N   0  0  0  0  0  0  0  0  0  0  0  0
   19.7569   26.1056   35.3107 C   0  0  0  0  0  0  0  0  0  0  0  0
   18.7573   26.2087   34.5512 O   0  0  0  0  0  0  0  0  0  0  0  0
   21.1370   26.1761   34.9056 C   0  0  0  0  0  0  0  0  0  0  0  0
   21.7232   26.3877   33.6641 C   0  0  0  0  0  0  0  0  0  0  0  0
   23.1249   26.4129   33.6009 C   0  0  0  0  0  0  0  0  0  0  0  0
   18.4626   25.6866   37.4948 C   0  0  0  0  0  0  0  0  0  0  0  0
   18.2189   24.1978   37.7688 C   0  0  0  0  0  0  0  0  0  0  0  0
   17.9765   23.4035   36.4870 C   0  0  0  0  0  0  0  0  0  0  0  0
  1  2  1  0
  2  3  2  0
  2  4  1  0
  4  5  2  0
  5  6  1  0
  6  7  2  0
  7  8  1  0
  8  9  2  0
  9 10  1  0
 10 11  2  0
 11 12  1  0
 12 13  2  0
 13 14  1  0
  1 15  1  0
 15 16  2  0
 16 17  1  0
 17 18  1  0
 18 19  1  0
 19 20  1  0
 20 21  2  0
 20 22  1  0
 22 23  1  0
 23 24  2  0
 19 25  1  0
 25 26  1  0
 26 27  1  0
 13  4  1  0
 24 15  1  0
 12  7  1  0
 22 17  2  0
M  END
>  <AAScore>  (1) 
3152.025435754284

>  <RootName>  (1) 
./4ZLY/04_DeltaGEst/trajectory_03/rank_00/lead_0369

$$$$
