confid_5
     RDKit          3D

 27 30  0  0  0  0  0  0  0  0999 V2000
   24.5500   26.3900   36.2500 N   0  0  0  0  0  0  0  0  0  0  0  0
   25.6000   26.1300   35.4000 C   0  0  0  0  0  0  0  0  0  0  0  0
   25.4300   25.4300   34.4200 O   0  0  0  0  0  0  0  0  0  0  0  0
   26.9800   26.6300   35.7100 C   0  0  0  0  0  0  0  0  0  0  0  0
   27.3200   26.8200   36.9800 N   0  0  0  0  0  0  0  0  0  0  0  0
   28.4700   27.4000   37.3100 N   0  0  0  0  0  0  0  0  0  0  0  0
   29.4000   27.6300   36.3700 C   0  0  0  0  0  0  0  0  0  0  0  0
   30.6600   28.0500   36.8000 C   0  0  0  0  0  0  0  0  0  0  0  0
   31.5700   28.3600   35.7800 C   0  0  0  0  0  0  0  0  0  0  0  0
   31.3700   28.1000   34.4300 C   0  0  0  0  0  0  0  0  0  0  0  0
   30.1200   27.5900   34.0500 C   0  0  0  0  0  0  0  0  0  0  0  0
   29.1500   27.3400   35.0300 C   0  0  0  0  0  0  0  0  0  0  0  0
   27.8800   26.8900   34.6600 C   0  0  0  0  0  0  0  0  0  0  0  0
   27.4800   26.6100   33.3700 N   0  0  0  0  0  0  0  0  0  0  0  0
   30.9988   28.2751   38.2261 C   0  0  0  0  0  0  0  0  0  0  0  0
   30.8974   27.1797   39.1282 C   0  0  0  0  0  0  0  0  0  0  0  0
   31.2251   27.4508   40.4374 C   0  0  0  0  0  0  0  0  0  0  0  0
   31.3916   27.0189   41.7957 C   0  0  2  0  0  0  0  0  0  0  0  0
   30.1495   26.5644   42.4722 N   0  0  0  0  0  0  0  0  0  0  0  0
   29.0234   27.5120   42.3651 C   0  0  0  0  0  0  0  0  0  0  0  0
   29.7470   25.2351   41.9874 C   0  0  0  0  0  0  0  0  0  0  0  0
   31.7909   28.2730   42.2390 O   0  0  0  0  0  0  0  0  0  0  0  0
   31.6442   28.7065   40.8784 C   0  0  0  0  0  0  0  0  0  0  0  0
   31.7647   29.7994   40.0477 C   0  0  0  0  0  0  0  0  0  0  0  0
   31.4256   29.5790   38.6782 C   0  0  0  0  0  0  0  0  0  0  0  0
   31.4824   30.6251   37.7427 O   0  0  0  0  0  0  0  0  0  0  0  0
   31.8842   31.9569   38.0452 C   0  0  0  0  0  0  0  0  0  0  0  0
  1  2  1  0
  2  3  2  0
  2  4  1  0
  4  5  2  0
  5  6  1  0
  6  7  2  0
  7  8  1  0
  8  9  2  0
  9 10  1  0
 10 11  2  0
 11 12  1  0
 12 13  2  0
 13 14  1  0
  8 15  1  0
 15 16  2  0
 16 17  1  0
 17 18  1  0
 18 19  1  1
 19 20  1  0
 19 21  1  0
 18 22  1  0
 22 23  1  0
 23 24  1  0
 24 25  2  0
 25 26  1  0
 26 27  1  0
 13  4  1  0
 25 15  1  0
 12  7  1  0
 23 17  2  0
M  END
>  <AAScore>  (1) 
14.124019352193285

>  <RootName>  (1) 
./4ZLY/04_DeltaGEst/trajectory_01/rank_01/lead_0009

$$$$
