confid_4
     RDKit          3D

 30 33  0  0  0  0  0  0  0  0999 V2000
   24.5700   26.8800   35.5900 N   0  0  0  0  0  0  0  0  0  0  0  0
   25.5000   26.4000   34.6900 C   0  0  0  0  0  0  0  0  0  0  0  0
   25.1700   25.5200   33.9100 O   0  0  0  0  0  0  0  0  0  0  0  0
   26.8400   27.0200   34.7400 C   0  0  0  0  0  0  0  0  0  0  0  0
   27.3800   27.2800   35.9400 N   0  0  0  0  0  0  0  0  0  0  0  0
   28.6200   27.7400   36.0300 N   0  0  0  0  0  0  0  0  0  0  0  0
   29.3800   28.0000   34.9600 C   0  0  0  0  0  0  0  0  0  0  0  0
   30.6700   28.5000   35.1300 C   0  0  0  0  0  0  0  0  0  0  0  0
   31.5400   28.6100   34.0300 C   0  0  0  0  0  0  0  0  0  0  0  0
   31.0900   28.2200   32.7700 C   0  0  0  0  0  0  0  0  0  0  0  0
   29.8000   27.7000   32.6000 C   0  0  0  0  0  0  0  0  0  0  0  0
   28.9600   27.5500   33.7100 C   0  0  0  0  0  0  0  0  0  0  0  0
   27.6600   27.0300   33.5900 C   0  0  0  0  0  0  0  0  0  0  0  0
   27.1600   26.7400   32.3400 N   0  0  0  0  0  0  0  0  0  0  0  0
   33.1800   29.2164   34.2308 S   0  0  0  0  0  6  0  0  0  0  0  0
   33.3076   29.9153   35.5560 O   0  0  0  0  0  0  0  0  0  0  0  0
   33.4771   30.2017   33.1356 O   0  0  0  0  0  0  0  0  0  0  0  0
   34.3123   27.8302   34.1748 C   0  0  0  0  0  0  0  0  0  0  0  0
   35.7913   28.2751   34.2788 C   0  0  2  0  0  0  0  0  0  0  0  0
   36.3408   28.8219   32.9281 C   0  0  0  0  0  0  0  0  0  0  0  0
   37.3569   27.8897   32.2432 C   0  0  0  0  0  0  0  0  0  0  0  0
   36.9090   26.4156   32.3311 C   0  0  1  0  0  0  0  0  0  0  0  0
   37.8635   25.5519   31.5924 N   0  0  0  0  0  0  0  0  0  0  0  0
   37.3977   24.1561   31.4804 C   0  0  0  0  0  0  0  0  0  0  0  0
   37.2678   24.2316   29.9624 C   0  0  0  0  0  0  0  0  0  0  0  0
   38.2658   23.3404   29.2078 C   0  0  0  0  0  0  0  0  0  0  0  0
   35.8250   24.0932   29.4537 C   0  0  0  0  0  0  0  0  0  0  0  0
   37.7303   25.6762   30.1278 C   0  0  0  0  0  0  0  0  0  0  0  0
   36.8185   25.9691   33.8198 C   0  0  0  0  0  0  0  0  0  0  0  0
   36.6738   27.1320   34.8208 C   0  0  0  0  0  0  0  0  0  0  0  0
  1  2  1  0
  2  3  2  0
  2  4  1  0
  4  5  2  0
  5  6  1  0
  6  7  2  0
  7  8  1  0
  8  9  2  0
  9 10  1  0
 10 11  2  0
 11 12  1  0
 12 13  2  0
 13 14  1  0
  9 15  1  0
 15 16  2  0
 15 17  2  0
 15 18  1  0
 19 18  1  6
 19 20  1  0
 20 21  1  0
 21 22  1  0
 22 23  1  6
 23 24  1  0
 24 25  1  0
 25 26  1  0
 25 27  1  0
 25 28  1  0
 22 29  1  0
 29 30  1  0
 13  4  1  0
 30 19  1  0
 12  7  1  0
 28 23  1  0
M  END
>  <AAScore>  (1) 
791.10554906368

>  <RootName>  (1) 
./4ZLY/04_DeltaGEst/trajectory_05/rank_01/lead_0116

$$$$
