confid_10
     RDKit          3D

 29 33  0  0  0  0  0  0  0  0999 V2000
   25.3300   26.2600   34.7600 N   0  0  0  0  0  0  0  0  0  0  0  0
   26.1200   25.9200   33.6900 C   0  0  0  0  0  0  0  0  0  0  0  0
   25.6300   25.1100   32.9400 O   0  0  0  0  0  0  0  0  0  0  0  0
   27.5200   26.3800   33.4600 C   0  0  0  0  0  0  0  0  0  0  0  0
   28.1600   26.6300   34.6100 N   0  0  0  0  0  0  0  0  0  0  0  0
   29.4800   26.8500   34.5700 N   0  0  0  0  0  0  0  0  0  0  0  0
   30.1900   26.7800   33.4400 C   0  0  0  0  0  0  0  0  0  0  0  0
   31.5600   27.0500   33.5000 C   0  0  0  0  0  0  0  0  0  0  0  0
   32.2700   27.2400   32.3100 C   0  0  0  0  0  0  0  0  0  0  0  0
   31.6100   27.2500   31.0800 C   0  0  0  0  0  0  0  0  0  0  0  0
   30.2700   26.8700   31.0600 C   0  0  0  0  0  0  0  0  0  0  0  0
   29.5100   26.6900   32.2300 C   0  0  0  0  0  0  0  0  0  0  0  0
   28.1400   26.4100   32.2000 C   0  0  0  0  0  0  0  0  0  0  0  0
   27.4300   26.1300   31.0500 N   0  0  0  0  0  0  0  0  0  0  0  0
   27.4671   24.7948   30.4469 C   0  0  0  0  0  0  0  0  0  0  0  0
   27.7730   24.8973   28.9497 C   0  0  0  0  0  0  0  0  0  0  0  0
   26.9788   25.9618   28.3179 N   0  0  0  0  0  0  0  0  0  0  0  0
   26.7265   25.8609   26.9050 C   0  0  0  0  0  0  0  0  0  0  0  0
   25.8552   24.8635   26.4115 C   0  0  0  0  0  0  0  0  0  0  0  0
   25.6306   24.7399   25.0281 C   0  0  0  0  0  0  0  0  0  0  0  0
   24.8153   23.7691   24.5387 F   0  0  0  0  0  0  0  0  0  0  0  0
   26.2898   25.6200   24.1676 C   0  0  0  0  0  0  0  0  0  0  0  0
   26.2598   25.6910   22.6948 C   0  0  0  0  0  0  0  0  0  0  0  0
   27.1298   26.7498   22.3095 O   0  0  0  0  0  0  0  0  0  0  0  0
   27.6539   27.3426   23.4941 C   0  0  0  0  0  0  0  0  0  0  0  0
   27.1152   26.5789   24.6337 C   0  0  0  0  0  0  0  0  0  0  0  0
   27.3637   26.7365   25.9989 C   0  0  0  0  0  0  0  0  0  0  0  0
   26.9169   27.2826   28.9601 C   0  0  0  0  0  0  0  0  0  0  0  0
   26.5675   27.1423   30.4414 C   0  0  0  0  0  0  0  0  0  0  0  0
  1  2  1  0
  2  3  2  0
  2  4  1  0
  4  5  2  0
  5  6  1  0
  6  7  2  0
  7  8  1  0
  8  9  2  0
  9 10  1  0
 10 11  2  0
 11 12  1  0
 12 13  2  0
 13 14  1  0
 14 15  1  0
 15 16  1  0
 16 17  1  0
 17 18  1  0
 18 19  2  0
 19 20  1  0
 20 21  1  0
 20 22  2  0
 22 23  1  0
 23 24  1  0
 24 25  1  0
 25 26  1  0
 26 27  2  0
 17 28  1  0
 28 29  1  0
 13  4  1  0
 29 14  1  0
 12  7  1  0
 27 18  1  0
 26 22  1  0
M  END
>  <AAScore>  (1) 
-1.220652453256037

>  <RootName>  (1) 
./4ZLY/04_DeltaGEst/trajectory_03/rank_01/lead_0102

$$$$
