confid_0
     RDKit          3D

 27 30  0  0  0  0  0  0  0  0999 V2000
   25.3300   26.2600   34.7600 N   0  0  0  0  0  0  0  0  0  0  0  0
   26.1200   25.9200   33.6900 C   0  0  0  0  0  0  0  0  0  0  0  0
   25.6300   25.1100   32.9400 O   0  0  0  0  0  0  0  0  0  0  0  0
   27.5200   26.3800   33.4600 C   0  0  0  0  0  0  0  0  0  0  0  0
   28.1600   26.6300   34.6100 N   0  0  0  0  0  0  0  0  0  0  0  0
   29.4800   26.8500   34.5700 N   0  0  0  0  0  0  0  0  0  0  0  0
   30.1900   26.7800   33.4400 C   0  0  0  0  0  0  0  0  0  0  0  0
   31.5600   27.0500   33.5000 C   0  0  0  0  0  0  0  0  0  0  0  0
   32.2700   27.2400   32.3100 C   0  0  0  0  0  0  0  0  0  0  0  0
   31.6100   27.2500   31.0800 C   0  0  0  0  0  0  0  0  0  0  0  0
   30.2700   26.8700   31.0600 C   0  0  0  0  0  0  0  0  0  0  0  0
   29.5100   26.6900   32.2300 C   0  0  0  0  0  0  0  0  0  0  0  0
   28.1400   26.4100   32.2000 C   0  0  0  0  0  0  0  0  0  0  0  0
   27.4300   26.1300   31.0500 N   0  0  0  0  0  0  0  0  0  0  0  0
   23.8910   26.2247   34.7757 C   0  0  0  0  0  0  0  0  0  0  0  0
   23.2456   26.0589   35.9729 N   0  0  0  0  0  0  0  0  0  0  0  0
   21.8851   26.0429   36.0703 C   0  0  0  0  0  0  0  0  0  0  0  0
   21.1364   26.2149   34.9124 C   0  0  0  0  0  0  0  0  0  0  0  0
   19.7639   26.2363   34.8025 O   0  0  0  0  0  0  0  0  0  0  0  0
   19.3726   26.4701   33.4437 C   0  0  1  0  0  0  0  0  0  0  0  0
   18.5080   25.3235   32.9506 C   0  0  0  0  0  0  0  0  0  0  0  0
   18.0576   25.2372   31.5199 C   0  0  0  0  0  0  0  0  0  0  0  0
   18.1485   24.4546   33.7312 O   0  0  0  0  0  0  0  0  0  0  0  0
   18.5913   27.7901   33.3819 C   0  0  0  0  0  0  0  0  0  0  0  0
   20.7185   26.5622   32.6449 C   0  0  0  0  0  0  0  0  0  0  0  0
   21.7425   26.3994   33.7097 C   0  0  0  0  0  0  0  0  0  0  0  0
   23.1312   26.4179   33.5982 C   0  0  0  0  0  0  0  0  0  0  0  0
  1  2  1  0
  2  3  2  0
  2  4  1  0
  4  5  2  0
  5  6  1  0
  6  7  2  0
  7  8  1  0
  8  9  2  0
  9 10  1  0
 10 11  2  0
 11 12  1  0
 12 13  2  0
 13 14  1  0
  1 15  1  0
 15 16  2  0
 16 17  1  0
 17 18  2  0
 18 19  1  0
 19 20  1  0
 20 21  1  0
 21 22  1  0
 21 23  2  0
 20 24  1  1
 20 25  1  0
 25 26  1  0
 26 27  2  0
 13  4  1  0
 27 15  1  0
 12  7  1  0
 26 18  1  0
M  END
>  <AAScore>  (1) 
1123.8318227170134

>  <RootName>  (1) 
./4ZLY/04_DeltaGEst/trajectory_03/rank_00/lead_0441

$$$$
