confid_5
     RDKit          3D

 26 29  0  0  0  0  0  0  0  0999 V2000
   24.5500   26.3900   36.2500 N   0  0  0  0  0  0  0  0  0  0  0  0
   25.6000   26.1300   35.4000 C   0  0  0  0  0  0  0  0  0  0  0  0
   25.4300   25.4300   34.4200 O   0  0  0  0  0  0  0  0  0  0  0  0
   26.9800   26.6300   35.7100 C   0  0  0  0  0  0  0  0  0  0  0  0
   27.3200   26.8200   36.9800 N   0  0  0  0  0  0  0  0  0  0  0  0
   28.4700   27.4000   37.3100 N   0  0  0  0  0  0  0  0  0  0  0  0
   29.4000   27.6300   36.3700 C   0  0  0  0  0  0  0  0  0  0  0  0
   30.6600   28.0500   36.8000 C   0  0  0  0  0  0  0  0  0  0  0  0
   31.5700   28.3600   35.7800 C   0  0  0  0  0  0  0  0  0  0  0  0
   31.3700   28.1000   34.4300 C   0  0  0  0  0  0  0  0  0  0  0  0
   30.1200   27.5900   34.0500 C   0  0  0  0  0  0  0  0  0  0  0  0
   29.1500   27.3400   35.0300 C   0  0  0  0  0  0  0  0  0  0  0  0
   27.8800   26.8900   34.6600 C   0  0  0  0  0  0  0  0  0  0  0  0
   27.4800   26.6100   33.3700 N   0  0  0  0  0  0  0  0  0  0  0  0
   30.9662   28.3059   38.1818 N   0  0  0  0  0  0  0  0  0  0  0  0
   30.2722   29.3882   38.8992 C   0  0  0  0  0  0  0  0  0  0  0  0
   29.8706   28.9222   40.3050 C   0  0  0  0  0  0  0  0  0  0  0  0
   31.0109   28.2018   40.9514 C   0  0  0  0  0  0  0  0  0  0  0  0
   31.1734   27.8351   42.5826 S   0  0  0  0  0  0  0  0  0  0  0  0
   32.5956   26.9609   42.3313 C   0  0  0  0  0  0  0  0  0  0  0  0
   33.3554   26.2450   43.4045 C   0  0  0  0  0  0  0  0  0  0  0  0
   32.6989   24.9077   43.7707 C   0  0  0  0  0  0  0  0  0  0  0  0
   32.7801   23.8883   42.6347 C   0  0  0  0  0  0  0  0  0  0  0  0
   32.9353   26.9142   41.0220 N   0  0  0  0  0  0  0  0  0  0  0  0
   32.0464   27.5963   40.2534 C   0  0  0  0  0  0  0  0  0  0  0  0
   32.1860   27.7268   38.7659 C   0  0  0  0  0  0  0  0  0  0  0  0
  1  2  1  0
  2  3  2  0
  2  4  1  0
  4  5  2  0
  5  6  1  0
  6  7  2  0
  7  8  1  0
  8  9  2  0
  9 10  1  0
 10 11  2  0
 11 12  1  0
 12 13  2  0
 13 14  1  0
  8 15  1  0
 15 16  1  0
 16 17  1  0
 17 18  1  0
 18 19  1  0
 19 20  1  0
 20 21  1  0
 21 22  1  0
 22 23  1  0
 20 24  2  0
 24 25  1  0
 25 26  1  0
 13  4  1  0
 26 15  1  0
 12  7  1  0
 25 18  2  0
M  END
>  <AAScore>  (1) 
15.226582423393529

>  <RootName>  (1) 
./4ZLY/04_DeltaGEst/trajectory_01/rank_01/lead_0480

$$$$
