confid_13
     RDKit          3D

 28 31  0  0  0  0  0  0  0  0999 V2000
   24.2000   26.2400   35.6900 N   0  0  0  0  0  0  0  0  0  0  0  0
   24.8500   26.2800   34.4800 C   0  0  0  0  0  0  0  0  0  0  0  0
   24.3100   25.7400   33.5400 O   0  0  0  0  0  0  0  0  0  0  0  0
   26.1800   26.9700   34.4700 C   0  0  0  0  0  0  0  0  0  0  0  0
   26.6500   27.6000   35.5500 N   0  0  0  0  0  0  0  0  0  0  0  0
   27.7900   28.2700   35.6200 N   0  0  0  0  0  0  0  0  0  0  0  0
   28.5400   28.3000   34.5100 C   0  0  0  0  0  0  0  0  0  0  0  0
   29.7700   28.9400   34.5600 C   0  0  0  0  0  0  0  0  0  0  0  0
   30.7000   28.8900   33.5000 C   0  0  0  0  0  0  0  0  0  0  0  0
   30.3700   28.1400   32.3700 C   0  0  0  0  0  0  0  0  0  0  0  0
   29.1200   27.5200   32.2800 C   0  0  0  0  0  0  0  0  0  0  0  0
   28.2100   27.6100   33.3300 C   0  0  0  0  0  0  0  0  0  0  0  0
   26.9700   26.9700   33.3100 C   0  0  0  0  0  0  0  0  0  0  0  0
   26.5300   26.2400   32.2200 N   0  0  0  0  0  0  0  0  0  0  0  0
   22.7753   26.1041   35.8420 C   0  0  0  0  0  0  0  0  0  0  0  0
   22.2835   25.5184   36.9675 N   0  0  0  0  0  0  0  0  0  0  0  0
   20.9487   25.3659   37.1823 C   0  0  0  0  0  0  0  0  0  0  0  0
   20.4623   24.7443   38.4490 C   0  0  0  0  0  0  0  0  0  0  0  0
   19.2313   23.8831   38.1694 C   0  0  0  0  0  0  0  0  0  0  0  0
   18.1920   24.6422   37.4474 N   0  0  0  0  0  0  0  0  0  0  0  0
   18.5404   25.7132   36.4911 C   0  0  0  0  0  0  0  0  0  0  0  0
   20.0245   25.8334   36.2378 C   0  0  0  0  0  0  0  0  0  0  0  0
   20.5052   26.4827   35.0910 C   0  0  0  0  0  0  0  0  0  0  0  0
   19.6450   26.9934   34.1738 F   0  0  0  0  0  0  0  0  0  0  0  0
   21.8798   26.6194   34.8901 C   0  0  0  0  0  0  0  0  0  0  0  0
   16.7991   24.2676   37.5676 C   0  0  0  0  0  0  0  0  0  0  0  0
   15.9063   24.9950   37.0514 O   0  0  0  0  0  0  0  0  0  0  0  0
   16.3703   23.0331   38.3055 C   0  0  0  0  0  0  0  0  0  0  0  0
  1  2  1  0
  2  3  2  0
  2  4  1  0
  4  5  2  0
  5  6  1  0
  6  7  2  0
  7  8  1  0
  8  9  2  0
  9 10  1  0
 10 11  2  0
 11 12  1  0
 12 13  2  0
 13 14  1  0
  1 15  1  0
 15 16  2  0
 16 17  1  0
 17 18  1  0
 18 19  1  0
 19 20  1  0
 20 21  1  0
 21 22  1  0
 22 23  1  0
 23 24  1  0
 23 25  2  0
 20 26  1  0
 26 27  2  0
 26 28  1  0
 13  4  1  0
 25 15  1  0
 12  7  1  0
 22 17  2  0
M  END
>  <AAScore>  (1) 
107.90099143684876

>  <RootName>  (1) 
./4ZLY/04_DeltaGEst/trajectory_04/rank_00/lead_0072

$$$$
