confid_17
     RDKit          3D

 28 30  0  0  0  0  0  0  0  0999 V2000
   24.5700   26.8800   35.5900 N   0  0  0  0  0  0  0  0  0  0  0  0
   25.5000   26.4000   34.6900 C   0  0  0  0  0  0  0  0  0  0  0  0
   25.1700   25.5200   33.9100 O   0  0  0  0  0  0  0  0  0  0  0  0
   26.8400   27.0200   34.7400 C   0  0  0  0  0  0  0  0  0  0  0  0
   27.3800   27.2800   35.9400 N   0  0  0  0  0  0  0  0  0  0  0  0
   28.6200   27.7400   36.0300 N   0  0  0  0  0  0  0  0  0  0  0  0
   29.3800   28.0000   34.9600 C   0  0  0  0  0  0  0  0  0  0  0  0
   30.6700   28.5000   35.1300 C   0  0  0  0  0  0  0  0  0  0  0  0
   31.5400   28.6100   34.0300 C   0  0  0  0  0  0  0  0  0  0  0  0
   31.0900   28.2200   32.7700 C   0  0  0  0  0  0  0  0  0  0  0  0
   29.8000   27.7000   32.6000 C   0  0  0  0  0  0  0  0  0  0  0  0
   28.9600   27.5500   33.7100 C   0  0  0  0  0  0  0  0  0  0  0  0
   27.6600   27.0300   33.5900 C   0  0  0  0  0  0  0  0  0  0  0  0
   27.1600   26.7400   32.3400 N   0  0  0  0  0  0  0  0  0  0  0  0
   33.1569   29.2724   34.2525 S   0  0  0  0  0  6  0  0  0  0  0  0
   33.9773   29.0592   33.0095 O   0  0  0  0  0  0  0  0  0  0  0  0
   33.8166   28.5484   35.3932 O   0  0  0  0  0  0  0  0  0  0  0  0
   33.0502   30.9768   34.6145 N   0  0  0  0  0  0  0  0  0  0  0  0
   32.4235   31.6813   33.4801 C   0  0  0  0  0  0  0  0  0  0  0  0
   32.2712   33.1726   33.8000 C   0  0  0  0  0  0  0  0  0  0  0  0
   33.6450   33.7878   34.1207 C   0  0  0  0  0  0  0  0  0  0  0  0
   33.6026   35.3151   34.3925 C   0  0  0  0  0  0  0  0  0  0  0  0
   32.5425   35.8191   35.3876 C   0  0  0  0  0  0  0  0  0  0  0  0
   32.7849   37.1532   35.6600 F   0  0  0  0  0  0  0  0  0  0  0  0
   31.2757   35.7154   34.8420 F   0  0  0  0  0  0  0  0  0  0  0  0
   32.5898   35.1175   36.5763 F   0  0  0  0  0  0  0  0  0  0  0  0
   34.3323   32.9917   35.2466 C   0  0  0  0  0  0  0  0  0  0  0  0
   34.4021   31.5054   34.8744 C   0  0  0  0  0  0  0  0  0  0  0  0
  1  2  1  0
  2  3  2  0
  2  4  1  0
  4  5  2  0
  5  6  1  0
  6  7  2  0
  7  8  1  0
  8  9  2  0
  9 10  1  0
 10 11  2  0
 11 12  1  0
 12 13  2  0
 13 14  1  0
  9 15  1  0
 15 16  2  0
 15 17  2  0
 15 18  1  0
 18 19  1  0
 19 20  1  0
 20 21  1  0
 21 22  1  0
 22 23  1  0
 23 24  1  0
 23 25  1  0
 23 26  1  0
 21 27  1  0
 27 28  1  0
 13  4  1  0
 28 18  1  0
 12  7  1  0
M  END
>  <AAScore>  (1) 
-6.495096396792539

>  <RootName>  (1) 
./4ZLY/04_DeltaGEst/trajectory_05/rank_01/lead_0416

$$$$
