confid_15
     RDKit          3D

 27 30  0  0  0  0  0  0  0  0999 V2000
   24.6900   26.1200   35.5300 N   0  0  0  0  0  0  0  0  0  0  0  0
   25.6600   25.6700   34.6600 C   0  0  0  0  0  0  0  0  0  0  0  0
   25.2400   25.0100   33.7200 O   0  0  0  0  0  0  0  0  0  0  0  0
   27.0300   26.2200   34.8800 C   0  0  0  0  0  0  0  0  0  0  0  0
   27.3500   26.7300   36.0700 N   0  0  0  0  0  0  0  0  0  0  0  0
   28.5700   27.1800   36.3300 N   0  0  0  0  0  0  0  0  0  0  0  0
   29.5300   27.1100   35.3900 C   0  0  0  0  0  0  0  0  0  0  0  0
   30.8300   27.5700   35.6500 C   0  0  0  0  0  0  0  0  0  0  0  0
   31.8500   27.5400   34.6900 C   0  0  0  0  0  0  0  0  0  0  0  0
   31.5100   27.1200   33.4000 C   0  0  0  0  0  0  0  0  0  0  0  0
   30.2200   26.6300   33.1100 C   0  0  0  0  0  0  0  0  0  0  0  0
   29.2400   26.6600   34.1000 C   0  0  0  0  0  0  0  0  0  0  0  0
   27.9300   26.2600   33.8100 C   0  0  0  0  0  0  0  0  0  0  0  0
   27.5200   25.7100   32.6100 N   0  0  0  0  0  0  0  0  0  0  0  0
   23.2879   26.2302   35.2161 C   0  0  0  0  0  0  0  0  0  0  0  0
   22.3742   25.9817   36.1897 N   0  0  0  0  0  0  0  0  0  0  0  0
   21.0387   26.0912   35.9753 C   0  0  0  0  0  0  0  0  0  0  0  0
   20.5449   26.4987   34.7250 C   0  0  0  0  0  0  0  0  0  0  0  0
   19.0489   26.5268   34.5119 C   0  0  0  0  0  0  0  0  0  0  0  0
   18.5660   25.2326   33.9128 C   0  0  0  0  0  0  0  0  0  0  0  0
   17.6365   24.6349   34.4362 O   0  0  0  0  0  0  0  0  0  0  0  0
   19.2060   24.6647   32.6782 C   0  0  0  0  0  0  0  0  0  0  0  0
   19.2854   25.6653   31.6787 O   0  0  0  0  0  0  0  0  0  0  0  0
   20.6228   26.0535   31.4190 C   0  0  0  0  0  0  0  0  0  0  0  0
   21.0444   27.2346   32.3053 C   0  0  0  0  0  0  0  0  0  0  0  0
   21.4732   26.7899   33.6907 C   0  0  0  0  0  0  0  0  0  0  0  0
   22.8465   26.6456   33.9497 C   0  0  0  0  0  0  0  0  0  0  0  0
  1  2  1  0
  2  3  2  0
  2  4  1  0
  4  5  2  0
  5  6  1  0
  6  7  2  0
  7  8  1  0
  8  9  2  0
  9 10  1  0
 10 11  2  0
 11 12  1  0
 12 13  2  0
 13 14  1  0
  1 15  1  0
 15 16  2  0
 16 17  1  0
 17 18  2  0
 18 19  1  0
 19 20  1  0
 20 21  2  0
 20 22  1  0
 22 23  1  0
 23 24  1  0
 24 25  1  0
 25 26  1  0
 26 27  2  0
 13  4  1  0
 27 15  1  0
 12  7  1  0
 26 18  1  0
M  END
>  <AAScore>  (1) 
455.7608029901921

>  <RootName>  (1) 
./4ZLY/04_DeltaGEst/trajectory_02/rank_00/lead_0233

$$$$
