confid_13
     RDKit          3D

 29 32  0  0  0  0  0  0  0  0999 V2000
   24.6900   26.1200   35.5300 N   0  0  0  0  0  0  0  0  0  0  0  0
   25.6600   25.6700   34.6600 C   0  0  0  0  0  0  0  0  0  0  0  0
   25.2400   25.0100   33.7200 O   0  0  0  0  0  0  0  0  0  0  0  0
   27.0300   26.2200   34.8800 C   0  0  0  0  0  0  0  0  0  0  0  0
   27.3500   26.7300   36.0700 N   0  0  0  0  0  0  0  0  0  0  0  0
   28.5700   27.1800   36.3300 N   0  0  0  0  0  0  0  0  0  0  0  0
   29.5300   27.1100   35.3900 C   0  0  0  0  0  0  0  0  0  0  0  0
   30.8300   27.5700   35.6500 C   0  0  0  0  0  0  0  0  0  0  0  0
   31.8500   27.5400   34.6900 C   0  0  0  0  0  0  0  0  0  0  0  0
   31.5100   27.1200   33.4000 C   0  0  0  0  0  0  0  0  0  0  0  0
   30.2200   26.6300   33.1100 C   0  0  0  0  0  0  0  0  0  0  0  0
   29.2400   26.6600   34.1000 C   0  0  0  0  0  0  0  0  0  0  0  0
   27.9300   26.2600   33.8100 C   0  0  0  0  0  0  0  0  0  0  0  0
   27.5200   25.7100   32.6100 N   0  0  0  0  0  0  0  0  0  0  0  0
   31.1485   28.0599   36.9618 N   0  0  0  0  0  0  0  0  0  0  0  0
   31.4378   29.4877   37.1437 C   0  0  0  0  0  0  0  0  0  0  0  0
   31.7339   29.8190   38.6110 C   0  0  0  0  0  0  0  0  0  0  0  0
   30.7841   29.1260   39.4946 N   0  0  0  0  0  0  0  0  0  0  0  0
   30.2771   29.7807   40.6726 C   0  0  0  0  0  0  0  0  0  0  0  0
   30.2395   29.1519   41.7653 O   0  0  0  0  0  0  0  0  0  0  0  0
   29.7911   31.1772   40.6314 C   0  0  0  0  0  0  0  0  0  0  0  0
   29.0495   31.6551   39.5334 C   0  0  0  0  0  0  0  0  0  0  0  0
   28.7239   30.8332   38.5041 F   0  0  0  0  0  0  0  0  0  0  0  0
   28.5989   32.9793   39.5134 C   0  0  0  0  0  0  0  0  0  0  0  0
   28.8731   33.8315   40.5858 C   0  0  0  0  0  0  0  0  0  0  0  0
   29.5906   33.3594   41.6872 C   0  0  0  0  0  0  0  0  0  0  0  0
   30.0436   32.0371   41.7142 C   0  0  0  0  0  0  0  0  0  0  0  0
   30.5101   27.6929   39.3057 C   0  0  0  0  0  0  0  0  0  0  0  0
   31.2502   27.1275   38.0889 C   0  0  0  0  0  0  0  0  0  0  0  0
  1  2  1  0
  2  3  2  0
  2  4  1  0
  4  5  2  0
  5  6  1  0
  6  7  2  0
  7  8  1  0
  8  9  2  0
  9 10  1  0
 10 11  2  0
 11 12  1  0
 12 13  2  0
 13 14  1  0
  8 15  1  0
 15 16  1  0
 16 17  1  0
 17 18  1  0
 18 19  1  0
 19 20  2  0
 19 21  1  0
 21 22  2  0
 22 23  1  0
 22 24  1  0
 24 25  2  0
 25 26  1  0
 26 27  2  0
 18 28  1  0
 28 29  1  0
 13  4  1  0
 29 15  1  0
 12  7  1  0
 27 21  1  0
M  END
>  <AAScore>  (1) 
-2.27546559945432

>  <RootName>  (1) 
./4ZLY/04_DeltaGEst/trajectory_02/rank_01/lead_0353

$$$$
