confid_11
     RDKit          3D

 30 33  0  0  0  0  0  0  0  0999 V2000
   24.2000   26.2400   35.6900 N   0  0  0  0  0  0  0  0  0  0  0  0
   24.8500   26.2800   34.4800 C   0  0  0  0  0  0  0  0  0  0  0  0
   24.3100   25.7400   33.5400 O   0  0  0  0  0  0  0  0  0  0  0  0
   26.1800   26.9700   34.4700 C   0  0  0  0  0  0  0  0  0  0  0  0
   26.6500   27.6000   35.5500 N   0  0  0  0  0  0  0  0  0  0  0  0
   27.7900   28.2700   35.6200 N   0  0  0  0  0  0  0  0  0  0  0  0
   28.5400   28.3000   34.5100 C   0  0  0  0  0  0  0  0  0  0  0  0
   29.7700   28.9400   34.5600 C   0  0  0  0  0  0  0  0  0  0  0  0
   30.7000   28.8900   33.5000 C   0  0  0  0  0  0  0  0  0  0  0  0
   30.3700   28.1400   32.3700 C   0  0  0  0  0  0  0  0  0  0  0  0
   29.1200   27.5200   32.2800 C   0  0  0  0  0  0  0  0  0  0  0  0
   28.2100   27.6100   33.3300 C   0  0  0  0  0  0  0  0  0  0  0  0
   26.9700   26.9700   33.3100 C   0  0  0  0  0  0  0  0  0  0  0  0
   26.5300   26.2400   32.2200 N   0  0  0  0  0  0  0  0  0  0  0  0
   30.1254   29.6856   35.7366 N   0  0  0  0  0  0  0  0  0  0  0  0
   29.5502   31.0149   35.9642 C   0  0  0  0  0  0  0  0  0  0  0  0
   30.5540   32.1166   35.6139 C   0  0  0  0  0  0  0  0  0  0  0  0
   31.9049   31.9308   36.3139 C   0  0  0  0  0  0  0  0  0  0  0  0
   32.6504   30.8235   35.6675 N   0  0  0  0  0  0  0  0  0  0  0  0
   34.0768   31.1656   35.4704 C   0  0  0  0  0  0  0  0  0  0  0  0
   34.2421   32.0140   34.2340 C   0  0  0  0  0  0  0  0  0  0  0  0
   34.4537   33.4001   34.3448 C   0  0  0  0  0  0  0  0  0  0  0  0
   34.5645   34.1917   33.1976 C   0  0  0  0  0  0  0  0  0  0  0  0
   34.4666   33.6082   31.9317 C   0  0  0  0  0  0  0  0  0  0  0  0
   34.5645   34.3787   30.8202 F   0  0  0  0  0  0  0  0  0  0  0  0
   34.2616   32.2315   31.8106 C   0  0  0  0  0  0  0  0  0  0  0  0
   34.1515   31.4339   32.9545 C   0  0  0  0  0  0  0  0  0  0  0  0
   33.9757   30.0957   32.8143 F   0  0  0  0  0  0  0  0  0  0  0  0
   32.5295   29.5462   36.4084 C   0  0  0  0  0  0  0  0  0  0  0  0
   31.0742   29.1325   36.7082 C   0  0  0  0  0  0  0  0  0  0  0  0
  1  2  1  0
  2  3  2  0
  2  4  1  0
  4  5  2  0
  5  6  1  0
  6  7  2  0
  7  8  1  0
  8  9  2  0
  9 10  1  0
 10 11  2  0
 11 12  1  0
 12 13  2  0
 13 14  1  0
  8 15  1  0
 15 16  1  0
 16 17  1  0
 17 18  1  0
 18 19  1  0
 19 20  1  0
 20 21  1  0
 21 22  2  0
 22 23  1  0
 23 24  2  0
 24 25  1  0
 24 26  1  0
 26 27  2  0
 27 28  1  0
 19 29  1  0
 29 30  1  0
 13  4  1  0
 30 15  1  0
 12  7  1  0
 27 21  1  0
M  END
>  <AAScore>  (1) 
-4.689922146229657

>  <RootName>  (1) 
./4ZLY/04_DeltaGEst/trajectory_04/rank_01/lead_0467

$$$$
