confid_15
     RDKit          3D

 28 31  0  0  0  0  0  0  0  0999 V2000
   24.6900   26.1200   35.5300 N   0  0  0  0  0  0  0  0  0  0  0  0
   25.6600   25.6700   34.6600 C   0  0  0  0  0  0  0  0  0  0  0  0
   25.2400   25.0100   33.7200 O   0  0  0  0  0  0  0  0  0  0  0  0
   27.0300   26.2200   34.8800 C   0  0  0  0  0  0  0  0  0  0  0  0
   27.3500   26.7300   36.0700 N   0  0  0  0  0  0  0  0  0  0  0  0
   28.5700   27.1800   36.3300 N   0  0  0  0  0  0  0  0  0  0  0  0
   29.5300   27.1100   35.3900 C   0  0  0  0  0  0  0  0  0  0  0  0
   30.8300   27.5700   35.6500 C   0  0  0  0  0  0  0  0  0  0  0  0
   31.8500   27.5400   34.6900 C   0  0  0  0  0  0  0  0  0  0  0  0
   31.5100   27.1200   33.4000 C   0  0  0  0  0  0  0  0  0  0  0  0
   30.2200   26.6300   33.1100 C   0  0  0  0  0  0  0  0  0  0  0  0
   29.2400   26.6600   34.1000 C   0  0  0  0  0  0  0  0  0  0  0  0
   27.9300   26.2600   33.8100 C   0  0  0  0  0  0  0  0  0  0  0  0
   27.5200   25.7100   32.6100 N   0  0  0  0  0  0  0  0  0  0  0  0
   31.1470   28.0598   36.9658 N   0  0  0  0  0  0  0  0  0  0  0  0
   31.1871   27.1353   38.0983 C   0  0  0  0  0  0  0  0  0  0  0  0
   30.4652   27.7639   39.2846 C   0  0  0  0  0  0  0  0  0  0  0  0
   30.9423   29.1713   39.5427 C   0  0  0  0  0  0  0  0  0  0  0  0
   30.7459   29.7278   40.8137 C   0  0  0  0  0  0  0  0  0  0  0  0
   31.1240   31.0429   41.0887 C   0  0  0  0  0  0  0  0  0  0  0  0
   30.9083   31.5377   42.3841 O   0  0  0  0  0  0  0  0  0  0  0  0
   31.2424   32.8545   42.8107 C   0  0  0  0  0  0  0  0  0  0  0  0
   31.7007   31.8208   40.0706 C   0  0  0  0  0  0  0  0  0  0  0  0
   31.8922   31.2884   38.7813 C   0  0  0  0  0  0  0  0  0  0  0  0
   31.4985   29.9626   38.5100 C   0  0  0  0  0  0  0  0  0  0  0  0
   31.7342   29.3940   37.1254 C   0  0  0  0  0  0  0  0  0  0  0  0
   32.4702   32.0461   37.7478 O   0  0  0  0  0  0  0  0  0  0  0  0
   32.9123   33.3933   37.8788 C   0  0  0  0  0  0  0  0  0  0  0  0
  1  2  1  0
  2  3  2  0
  2  4  1  0
  4  5  2  0
  5  6  1  0
  6  7  2  0
  7  8  1  0
  8  9  2  0
  9 10  1  0
 10 11  2  0
 11 12  1  0
 12 13  2  0
 13 14  1  0
  8 15  1  0
 15 16  1  0
 16 17  1  0
 17 18  1  0
 18 19  2  0
 19 20  1  0
 20 21  1  0
 21 22  1  0
 20 23  2  0
 23 24  1  0
 24 25  2  0
 25 26  1  0
 24 27  1  0
 27 28  1  0
 13  4  1  0
 26 15  1  0
 12  7  1  0
 25 18  1  0
M  END
>  <AAScore>  (1) 
-4.972563098210913

>  <RootName>  (1) 
./4ZLY/04_DeltaGEst/trajectory_02/rank_01/lead_0080

$$$$
