confid_15
     RDKit          3D

 27 30  0  0  0  0  0  0  0  0999 V2000
   24.6900   26.1200   35.5300 N   0  0  0  0  0  0  0  0  0  0  0  0
   25.6600   25.6700   34.6600 C   0  0  0  0  0  0  0  0  0  0  0  0
   25.2400   25.0100   33.7200 O   0  0  0  0  0  0  0  0  0  0  0  0
   27.0300   26.2200   34.8800 C   0  0  0  0  0  0  0  0  0  0  0  0
   27.3500   26.7300   36.0700 N   0  0  0  0  0  0  0  0  0  0  0  0
   28.5700   27.1800   36.3300 N   0  0  0  0  0  0  0  0  0  0  0  0
   29.5300   27.1100   35.3900 C   0  0  0  0  0  0  0  0  0  0  0  0
   30.8300   27.5700   35.6500 C   0  0  0  0  0  0  0  0  0  0  0  0
   31.8500   27.5400   34.6900 C   0  0  0  0  0  0  0  0  0  0  0  0
   31.5100   27.1200   33.4000 C   0  0  0  0  0  0  0  0  0  0  0  0
   30.2200   26.6300   33.1100 C   0  0  0  0  0  0  0  0  0  0  0  0
   29.2400   26.6600   34.1000 C   0  0  0  0  0  0  0  0  0  0  0  0
   27.9300   26.2600   33.8100 C   0  0  0  0  0  0  0  0  0  0  0  0
   27.5200   25.7100   32.6100 N   0  0  0  0  0  0  0  0  0  0  0  0
   23.3196   26.3703   35.1710 C   0  0  0  0  0  0  0  0  0  0  0  0
   22.4094   26.6283   36.1469 N   0  0  0  0  0  0  0  0  0  0  0  0
   21.1097   26.8845   35.8493 C   0  0  0  0  0  0  0  0  0  0  0  0
   20.6822   26.8921   34.5162 C   0  0  0  0  0  0  0  0  0  0  0  0
   19.2401   27.2026   34.1603 C   0  0  0  0  0  0  0  0  0  0  0  0
   18.5320   26.1491   33.3755 N   0  0  0  0  0  0  0  0  0  0  0  0
   17.6564   26.7470   32.3492 C   0  0  0  0  0  0  0  0  0  0  0  0
   19.3431   24.9951   32.8917 C   0  0  1  0  0  0  0  0  0  0  0  0
   18.4495   23.8259   32.4496 C   0  0  0  0  0  0  0  0  0  0  0  0
   20.3592   25.3579   31.7734 C   0  0  0  0  0  0  0  0  0  0  0  0
   21.2371   26.5856   32.0724 C   0  0  0  0  0  0  0  0  0  0  0  0
   21.6411   26.6459   33.5177 C   0  0  0  0  0  0  0  0  0  0  0  0
   22.9277   26.3842   33.8679 N   0  0  0  0  0  0  0  0  0  0  0  0
  1  2  1  0
  2  3  2  0
  2  4  1  0
  4  5  2  0
  5  6  1  0
  6  7  2  0
  7  8  1  0
  8  9  2  0
  9 10  1  0
 10 11  2  0
 11 12  1  0
 12 13  2  0
 13 14  1  0
  1 15  1  0
 15 16  2  0
 16 17  1  0
 17 18  2  0
 18 19  1  0
 19 20  1  0
 20 21  1  0
 20 22  1  0
 22 23  1  6
 22 24  1  0
 24 25  1  0
 25 26  1  0
 26 27  2  0
 13  4  1  0
 27 15  1  0
 12  7  1  0
 26 18  1  0
M  END
>  <AAScore>  (1) 
2709.8573779970084

>  <RootName>  (1) 
./4ZLY/04_DeltaGEst/trajectory_02/rank_00/lead_0449

$$$$
