confid_1
     RDKit          3D

 28 32  0  0  0  0  0  0  0  0999 V2000
   24.2000   26.2400   35.6900 N   0  0  0  0  0  0  0  0  0  0  0  0
   24.8500   26.2800   34.4800 C   0  0  0  0  0  0  0  0  0  0  0  0
   24.3100   25.7400   33.5400 O   0  0  0  0  0  0  0  0  0  0  0  0
   26.1800   26.9700   34.4700 C   0  0  0  0  0  0  0  0  0  0  0  0
   26.6500   27.6000   35.5500 N   0  0  0  0  0  0  0  0  0  0  0  0
   27.7900   28.2700   35.6200 N   0  0  0  0  0  0  0  0  0  0  0  0
   28.5400   28.3000   34.5100 C   0  0  0  0  0  0  0  0  0  0  0  0
   29.7700   28.9400   34.5600 C   0  0  0  0  0  0  0  0  0  0  0  0
   30.7000   28.8900   33.5000 C   0  0  0  0  0  0  0  0  0  0  0  0
   30.3700   28.1400   32.3700 C   0  0  0  0  0  0  0  0  0  0  0  0
   29.1200   27.5200   32.2800 C   0  0  0  0  0  0  0  0  0  0  0  0
   28.2100   27.6100   33.3300 C   0  0  0  0  0  0  0  0  0  0  0  0
   26.9700   26.9700   33.3100 C   0  0  0  0  0  0  0  0  0  0  0  0
   26.5300   26.2400   32.2200 N   0  0  0  0  0  0  0  0  0  0  0  0
   30.1436   29.6565   35.7450 N   0  0  0  0  0  0  0  0  0  0  0  0
   31.1435   29.0482   36.6421 C   0  0  0  0  0  0  0  0  0  0  0  0
   30.9474   29.4946   38.1111 C   0  0  0  0  0  0  0  0  0  0  0  0
   30.8116   30.9573   38.2218 N   0  0  0  0  0  0  0  0  0  0  0  0
   31.2042   31.6615   39.4424 C   0  0  0  0  0  0  0  0  0  0  0  0
   30.1166   31.6394   37.1717 C   0  0  0  0  0  0  0  0  0  0  0  0
   29.6540   32.9376   37.1358 C   0  0  0  0  0  0  0  0  0  0  0  0
   29.0232   33.0589   35.9069 C   0  0  0  0  0  0  0  0  0  0  0  0
   29.1010   31.9015   35.2035 N   0  0  0  0  0  0  0  0  0  0  0  0
   29.7727   31.0294   36.0005 C   0  0  0  0  0  0  0  0  0  0  0  0
   28.4700   31.7053   33.8959 C   0  0  0  0  0  0  0  0  0  0  0  0
   27.0326   31.1928   34.0813 C   0  0  0  0  0  0  0  0  0  0  0  0
   26.4031   30.6131   32.8216 C   0  0  0  0  0  0  0  0  0  0  0  0
   25.9428   31.9623   33.3451 C   0  0  0  0  0  0  0  0  0  0  0  0
  1  2  1  0
  2  3  2  0
  2  4  1  0
  4  5  2  0
  5  6  1  0
  6  7  2  0
  7  8  1  0
  8  9  2  0
  9 10  1  0
 10 11  2  0
 11 12  1  0
 12 13  2  0
 13 14  1  0
  8 15  1  0
 15 16  1  0
 16 17  1  0
 17 18  1  0
 18 19  1  0
 18 20  1  0
 20 21  1  0
 21 22  2  0
 22 23  1  0
 23 24  1  0
 23 25  1  0
 25 26  1  0
 26 27  1  0
 27 28  1  0
 13  4  1  0
 24 15  1  0
 28 26  1  0
 12  7  1  0
 24 20  2  0
M  END
>  <AAScore>  (1) 
43.88194458924405

>  <RootName>  (1) 
./4ZLY/04_DeltaGEst/trajectory_04/rank_01/lead_0492

$$$$
