confid_0
     RDKit          3D

 29 33  0  0  0  0  0  0  0  0999 V2000
   24.2000   26.2400   35.6900 N   0  0  0  0  0  0  0  0  0  0  0  0
   24.8500   26.2800   34.4800 C   0  0  0  0  0  0  0  0  0  0  0  0
   24.3100   25.7400   33.5400 O   0  0  0  0  0  0  0  0  0  0  0  0
   26.1800   26.9700   34.4700 C   0  0  0  0  0  0  0  0  0  0  0  0
   26.6500   27.6000   35.5500 N   0  0  0  0  0  0  0  0  0  0  0  0
   27.7900   28.2700   35.6200 N   0  0  0  0  0  0  0  0  0  0  0  0
   28.5400   28.3000   34.5100 C   0  0  0  0  0  0  0  0  0  0  0  0
   29.7700   28.9400   34.5600 C   0  0  0  0  0  0  0  0  0  0  0  0
   30.7000   28.8900   33.5000 C   0  0  0  0  0  0  0  0  0  0  0  0
   30.3700   28.1400   32.3700 C   0  0  0  0  0  0  0  0  0  0  0  0
   29.1200   27.5200   32.2800 C   0  0  0  0  0  0  0  0  0  0  0  0
   28.2100   27.6100   33.3300 C   0  0  0  0  0  0  0  0  0  0  0  0
   26.9700   26.9700   33.3100 C   0  0  0  0  0  0  0  0  0  0  0  0
   26.5300   26.2400   32.2200 N   0  0  0  0  0  0  0  0  0  0  0  0
   22.7704   26.1948   35.8446 C   0  0  0  0  0  0  0  0  0  0  0  0
   22.2459   25.6264   36.9636 N   0  0  0  0  0  0  0  0  0  0  0  0
   20.9087   25.5883   37.1988 C   0  0  0  0  0  0  0  0  0  0  0  0
   20.0123   26.1550   36.2836 C   0  0  0  0  0  0  0  0  0  0  0  0
   18.5292   26.0978   36.5729 C   0  0  0  0  0  0  0  0  0  0  0  0
   17.7153   26.7440   35.5291 N   0  0  0  0  0  0  0  0  0  0  0  0
   16.3538   27.1389   35.8090 C   0  0  0  0  0  0  0  0  0  0  0  0
   15.7449   27.9122   35.0191 O   0  0  0  0  0  0  0  0  0  0  0  0
   15.6527   26.6910   37.0631 C   0  0  0  0  0  0  0  0  0  0  0  0
   15.3606   25.1983   37.1236 C   0  0  0  0  0  0  0  0  0  0  0  0
   14.2328   26.1791   36.8586 C   0  0  0  0  0  0  0  0  0  0  0  0
   18.2266   26.7884   34.1536 C   0  0  0  0  0  0  0  0  0  0  0  0
   19.6070   27.4356   34.1383 C   0  0  0  0  0  0  0  0  0  0  0  0
   20.5240   26.7555   35.1163 C   0  0  0  0  0  0  0  0  0  0  0  0
   21.9097   26.7915   34.9090 C   0  0  0  0  0  0  0  0  0  0  0  0
  1  2  1  0
  2  3  2  0
  2  4  1  0
  4  5  2  0
  5  6  1  0
  6  7  2  0
  7  8  1  0
  8  9  2  0
  9 10  1  0
 10 11  2  0
 11 12  1  0
 12 13  2  0
 13 14  1  0
  1 15  1  0
 15 16  2  0
 16 17  1  0
 17 18  2  0
 18 19  1  0
 19 20  1  0
 20 21  1  0
 21 22  2  0
 21 23  1  0
 23 24  1  0
 24 25  1  0
 20 26  1  0
 26 27  1  0
 27 28  1  0
 28 29  2  0
 13  4  1  0
 29 15  1  0
 12  7  1  0
 28 18  1  0
 25 23  1  0
M  END
>  <AAScore>  (1) 
146.29062242596535

>  <RootName>  (1) 
./4ZLY/04_DeltaGEst/trajectory_04/rank_00/lead_0204

$$$$
