confid_19
     RDKit          3D

 31 34  0  0  0  0  0  0  0  0999 V2000
   25.3300   26.2600   34.7600 N   0  0  0  0  0  0  0  0  0  0  0  0
   26.1200   25.9200   33.6900 C   0  0  0  0  0  0  0  0  0  0  0  0
   25.6300   25.1100   32.9400 O   0  0  0  0  0  0  0  0  0  0  0  0
   27.5200   26.3800   33.4600 C   0  0  0  0  0  0  0  0  0  0  0  0
   28.1600   26.6300   34.6100 N   0  0  0  0  0  0  0  0  0  0  0  0
   29.4800   26.8500   34.5700 N   0  0  0  0  0  0  0  0  0  0  0  0
   30.1900   26.7800   33.4400 C   0  0  0  0  0  0  0  0  0  0  0  0
   31.5600   27.0500   33.5000 C   0  0  0  0  0  0  0  0  0  0  0  0
   32.2700   27.2400   32.3100 C   0  0  0  0  0  0  0  0  0  0  0  0
   31.6100   27.2500   31.0800 C   0  0  0  0  0  0  0  0  0  0  0  0
   30.2700   26.8700   31.0600 C   0  0  0  0  0  0  0  0  0  0  0  0
   29.5100   26.6900   32.2300 C   0  0  0  0  0  0  0  0  0  0  0  0
   28.1400   26.4100   32.2000 C   0  0  0  0  0  0  0  0  0  0  0  0
   27.4300   26.1300   31.0500 N   0  0  0  0  0  0  0  0  0  0  0  0
   23.9696   25.8366   34.9995 C   0  0  0  0  0  0  0  0  0  0  0  0
   23.2983   25.2357   34.0584 N   0  0  0  0  0  0  0  0  0  0  0  0
   21.9691   24.7251   34.1841 C   0  0  0  0  0  0  0  0  0  0  0  0
   20.9602   25.1393   33.3946 C   0  0  0  0  0  0  0  0  0  0  0  0
   19.8304   24.2032   33.1031 C   0  0  0  0  0  0  0  0  0  0  0  0
   19.7662   23.9019   31.6537 N   0  0  0  0  0  0  0  0  0  0  0  0
   20.7023   24.4813   30.6495 C   0  0  0  0  0  0  0  0  0  0  0  0
   21.5050   25.7402   31.1036 C   0  0  0  0  0  0  0  0  0  0  0  0
   21.0093   26.3018   32.4333 C   0  0  2  0  0  0  0  0  0  0  0  0
   21.7767   27.5707   32.8840 C   0  0  0  0  0  0  0  0  0  0  0  0
   21.1550   28.2446   34.1237 C   0  0  0  0  0  0  0  0  0  0  0  0
   21.3025   27.4129   35.3307 N   0  0  0  0  0  0  0  0  0  0  0  0
   22.5780   27.6330   36.0393 C   0  0  0  0  0  0  0  0  0  0  0  0
   23.2917   26.2954   36.2686 C   0  0  0  0  0  0  0  0  0  0  0  0
   18.7560   22.9606   31.2192 C   0  0  0  0  0  0  0  0  0  0  0  0
   17.8390   22.6121   32.0143 O   0  0  0  0  0  0  0  0  0  0  0  0
   18.7293   22.4125   29.8227 C   0  0  0  0  0  0  0  0  0  0  0  0
  1  2  1  0
  2  3  2  0
  2  4  1  0
  4  5  2  0
  5  6  1  0
  6  7  2  0
  7  8  1  0
  8  9  2  0
  9 10  1  0
 10 11  2  0
 11 12  1  0
 12 13  2  0
 13 14  1  0
  1 15  1  0
 15 16  2  0
 16 17  1  0
 17 18  2  0
 18 19  1  0
 19 20  1  0
 20 21  1  0
 21 22  1  0
 23 22  1  6
 23 24  1  0
 24 25  1  0
 25 26  1  0
 26 27  1  0
 27 28  1  0
 20 29  1  0
 29 30  2  0
 29 31  1  0
 13  4  1  0
 28 15  1  0
 12  7  1  0
 23 18  1  0
M  END
>  <AAScore>  (1) 
2311.458001353189

>  <RootName>  (1) 
./4ZLY/04_DeltaGEst/trajectory_03/rank_00/lead_0037

$$$$
