confid_12
     RDKit          3D

 29 32  0  0  0  0  0  0  0  0999 V2000
   25.3300   26.2600   34.7600 N   0  0  0  0  0  0  0  0  0  0  0  0
   26.1200   25.9200   33.6900 C   0  0  0  0  0  0  0  0  0  0  0  0
   25.6300   25.1100   32.9400 O   0  0  0  0  0  0  0  0  0  0  0  0
   27.5200   26.3800   33.4600 C   0  0  0  0  0  0  0  0  0  0  0  0
   28.1600   26.6300   34.6100 N   0  0  0  0  0  0  0  0  0  0  0  0
   29.4800   26.8500   34.5700 N   0  0  0  0  0  0  0  0  0  0  0  0
   30.1900   26.7800   33.4400 C   0  0  0  0  0  0  0  0  0  0  0  0
   31.5600   27.0500   33.5000 C   0  0  0  0  0  0  0  0  0  0  0  0
   32.2700   27.2400   32.3100 C   0  0  0  0  0  0  0  0  0  0  0  0
   31.6100   27.2500   31.0800 C   0  0  0  0  0  0  0  0  0  0  0  0
   30.2700   26.8700   31.0600 C   0  0  0  0  0  0  0  0  0  0  0  0
   29.5100   26.6900   32.2300 C   0  0  0  0  0  0  0  0  0  0  0  0
   28.1400   26.4100   32.2000 C   0  0  0  0  0  0  0  0  0  0  0  0
   27.4300   26.1300   31.0500 N   0  0  0  0  0  0  0  0  0  0  0  0
   27.5885   24.8175   30.4039 C   0  0  0  0  0  0  0  0  0  0  0  0
   26.7139   24.7045   29.1520 C   0  0  0  0  0  0  0  0  0  0  0  0
   26.8331   25.9272   28.3495 N   0  0  0  0  0  0  0  0  0  0  0  0
   27.0639   25.8397   26.9350 C   0  0  0  0  0  0  0  0  0  0  0  0
   28.2948   26.2452   26.4093 C   0  0  0  0  0  0  0  0  0  0  0  0
   28.5489   26.1614   25.0334 C   0  0  0  0  0  0  0  0  0  0  0  0
   29.9064   26.5759   24.5179 C   0  0  0  0  0  0  0  0  0  0  0  0
   30.8257   25.5321   24.6874 O   0  0  0  0  0  0  0  0  0  0  0  0
   27.5444   25.6286   24.1937 C   0  0  0  0  0  0  0  0  0  0  0  0
   26.3518   25.2527   24.7307 N   0  0  0  0  0  0  0  0  0  0  0  0
   26.0778   25.3507   26.0589 C   0  0  0  0  0  0  0  0  0  0  0  0
   24.7334   24.9111   26.5549 C   0  0  0  0  0  0  0  0  0  0  0  0
   27.7358   25.4816   22.7126 C   0  0  0  0  0  0  0  0  0  0  0  0
   26.7409   27.2518   28.9790 C   0  0  0  0  0  0  0  0  0  0  0  0
   26.5212   27.1380   30.4905 C   0  0  0  0  0  0  0  0  0  0  0  0
  1  2  1  0
  2  3  2  0
  2  4  1  0
  4  5  2  0
  5  6  1  0
  6  7  2  0
  7  8  1  0
  8  9  2  0
  9 10  1  0
 10 11  2  0
 11 12  1  0
 12 13  2  0
 13 14  1  0
 14 15  1  0
 15 16  1  0
 16 17  1  0
 17 18  1  0
 18 19  2  0
 19 20  1  0
 20 21  1  0
 21 22  1  0
 20 23  2  0
 23 24  1  0
 24 25  2  0
 25 26  1  0
 23 27  1  0
 17 28  1  0
 28 29  1  0
 13  4  1  0
 29 14  1  0
 12  7  1  0
 25 18  1  0
M  END
>  <AAScore>  (1) 
12.924130583848976

>  <RootName>  (1) 
./4ZLY/04_DeltaGEst/trajectory_03/rank_01/lead_0480

$$$$
