confid_11
     RDKit          3D

 30 34  0  0  0  0  0  0  0  0999 V2000
   24.4800   26.1000   36.1300 N   0  0  0  0  0  0  0  0  0  0  0  0
   25.2500   26.2500   34.9900 C   0  0  0  0  0  0  0  0  0  0  0  0
   24.7400   25.7600   33.9900 O   0  0  0  0  0  0  0  0  0  0  0  0
   26.5900   26.8900   34.9600 C   0  0  0  0  0  0  0  0  0  0  0  0
   27.0600   27.2400   36.1600 N   0  0  0  0  0  0  0  0  0  0  0  0
   28.3000   27.7100   36.2400 N   0  0  0  0  0  0  0  0  0  0  0  0
   29.0500   27.9600   35.1500 C   0  0  0  0  0  0  0  0  0  0  0  0
   30.3400   28.4900   35.2600 C   0  0  0  0  0  0  0  0  0  0  0  0
   31.1100   28.8200   34.1400 C   0  0  0  0  0  0  0  0  0  0  0  0
   30.5200   28.6700   32.8800 C   0  0  0  0  0  0  0  0  0  0  0  0
   29.2900   28.0200   32.7700 C   0  0  0  0  0  0  0  0  0  0  0  0
   28.5200   27.7100   33.8900 C   0  0  0  0  0  0  0  0  0  0  0  0
   27.2700   27.0800   33.7600 C   0  0  0  0  0  0  0  0  0  0  0  0
   26.7500   26.8800   32.4900 N   0  0  0  0  0  0  0  0  0  0  0  0
   23.5784   25.0035   36.3740 C   0  0  0  0  0  0  0  0  0  0  0  0
   23.8472   23.8520   35.8048 N   0  0  0  0  0  0  0  0  0  0  0  0
   23.1904   22.5949   35.9853 C   0  0  0  0  0  0  0  0  0  0  0  0
   23.1541   22.0056   37.1845 C   0  0  0  0  0  0  0  0  0  0  0  0
   23.5593   22.7793   38.3944 C   0  0  0  0  0  0  0  0  0  0  0  0
   22.2822   23.3333   38.7901 N   0  0  0  0  0  0  0  0  0  0  0  0
   21.3760   22.2522   38.5320 C   0  0  0  0  0  0  0  0  0  0  0  0
   20.2203   22.1882   39.0315 O   0  0  0  0  0  0  0  0  0  0  0  0
   21.9239   21.2518   37.5722 C   0  0  0  0  0  0  0  0  0  0  0  0
   21.8581   24.6464   38.3697 C   0  0  0  0  0  0  0  0  0  0  0  0
   20.8152   25.2308   39.1105 C   0  0  0  0  0  0  0  0  0  0  0  0
   20.2205   26.4287   38.7126 C   0  0  0  0  0  0  0  0  0  0  0  0
   20.6418   27.0455   37.5360 C   0  0  0  0  0  0  0  0  0  0  0  0
   21.6840   26.5034   36.7928 C   0  0  0  0  0  0  0  0  0  0  0  0
   22.3374   25.3160   37.1844 C   0  0  0  0  0  0  0  0  0  0  0  0
   19.0709   26.9883   39.4907 C   0  0  0  0  0  0  0  0  0  0  0  0
  1  2  1  0
  2  3  2  0
  2  4  1  0
  4  5  2  0
  5  6  1  0
  6  7  2  0
  7  8  1  0
  8  9  2  0
  9 10  1  0
 10 11  2  0
 11 12  1  0
 12 13  2  0
 13 14  1  0
  1 15  1  0
 15 16  2  0
 16 17  1  0
 17 18  2  0
 18 19  1  0
 19 20  1  0
 20 21  1  0
 21 22  2  0
 21 23  1  0
 20 24  1  0
 24 25  2  0
 25 26  1  0
 26 27  2  0
 27 28  1  0
 28 29  2  0
 26 30  1  0
 13  4  1  0
 29 15  1  0
 12  7  1  0
 23 18  1  0
 29 24  1  0
M  END
>  <AAScore>  (1) 
4154.566770726447

>  <RootName>  (1) 
./4ZLY/04_DeltaGEst/trajectory_00/rank_01/lead_0294

$$$$
