confid_12
     RDKit          3D

 30 34  0  0  0  0  0  0  0  0999 V2000
   25.3300   26.2600   34.7600 N   0  0  0  0  0  0  0  0  0  0  0  0
   26.1200   25.9200   33.6900 C   0  0  0  0  0  0  0  0  0  0  0  0
   25.6300   25.1100   32.9400 O   0  0  0  0  0  0  0  0  0  0  0  0
   27.5200   26.3800   33.4600 C   0  0  0  0  0  0  0  0  0  0  0  0
   28.1600   26.6300   34.6100 N   0  0  0  0  0  0  0  0  0  0  0  0
   29.4800   26.8500   34.5700 N   0  0  0  0  0  0  0  0  0  0  0  0
   30.1900   26.7800   33.4400 C   0  0  0  0  0  0  0  0  0  0  0  0
   31.5600   27.0500   33.5000 C   0  0  0  0  0  0  0  0  0  0  0  0
   32.2700   27.2400   32.3100 C   0  0  0  0  0  0  0  0  0  0  0  0
   31.6100   27.2500   31.0800 C   0  0  0  0  0  0  0  0  0  0  0  0
   30.2700   26.8700   31.0600 C   0  0  0  0  0  0  0  0  0  0  0  0
   29.5100   26.6900   32.2300 C   0  0  0  0  0  0  0  0  0  0  0  0
   28.1400   26.4100   32.2000 C   0  0  0  0  0  0  0  0  0  0  0  0
   27.4300   26.1300   31.0500 N   0  0  0  0  0  0  0  0  0  0  0  0
   27.5855   24.8159   30.4064 C   0  0  0  0  0  0  0  0  0  0  0  0
   26.6998   24.6974   29.1629 C   0  0  0  0  0  0  0  0  0  0  0  0
   26.8128   25.9162   28.3536 N   0  0  0  0  0  0  0  0  0  0  0  0
   27.0240   25.8208   26.9368 C   0  0  0  0  0  0  0  0  0  0  0  0
   28.2601   26.2035   26.4016 C   0  0  0  0  0  0  0  0  0  0  0  0
   28.4875   26.0935   25.0250 C   0  0  0  0  0  0  0  0  0  0  0  0
   29.8238   26.4954   24.4457 C   0  0  0  0  0  0  0  0  0  0  0  0
   30.4277   25.4739   23.5074 C   0  0  0  0  0  0  0  0  0  0  0  0
   30.3026   26.3239   22.3918 O   0  0  0  0  0  0  0  0  0  0  0  0
   29.7347   27.3352   23.1904 C   0  0  0  0  0  0  0  0  0  0  0  0
   27.5007   25.6098   24.2202 N   0  0  0  0  0  0  0  0  0  0  0  0
   26.2893   25.2358   24.7076 C   0  0  0  0  0  0  0  0  0  0  0  0
   26.0120   25.3451   26.0780 C   0  0  0  0  0  0  0  0  0  0  0  0
   24.6670   24.9274   26.6043 C   0  0  0  0  0  0  0  0  0  0  0  0
   26.7314   27.2440   28.9774 C   0  0  0  0  0  0  0  0  0  0  0  0
   26.5211   27.1382   30.4909 C   0  0  0  0  0  0  0  0  0  0  0  0
  1  2  1  0
  2  3  2  0
  2  4  1  0
  4  5  2  0
  5  6  1  0
  6  7  2  0
  7  8  1  0
  8  9  2  0
  9 10  1  0
 10 11  2  0
 11 12  1  0
 12 13  2  0
 13 14  1  0
 14 15  1  0
 15 16  1  0
 16 17  1  0
 17 18  1  0
 18 19  2  0
 19 20  1  0
 20 21  1  0
 21 22  1  0
 22 23  1  0
 23 24  1  0
 20 25  2  0
 25 26  1  0
 26 27  2  0
 27 28  1  0
 17 29  1  0
 29 30  1  0
 13  4  1  0
 30 14  1  0
 12  7  1  0
 27 18  1  0
 24 21  1  0
M  END
>  <AAScore>  (1) 
18.0328810998088

>  <RootName>  (1) 
./4ZLY/04_DeltaGEst/trajectory_03/rank_01/lead_0232

$$$$
