confid_14
     RDKit          3D

 31 35  0  0  0  0  0  0  0  0999 V2000
   24.6900   26.1200   35.5300 N   0  0  0  0  0  0  0  0  0  0  0  0
   25.6600   25.6700   34.6600 C   0  0  0  0  0  0  0  0  0  0  0  0
   25.2400   25.0100   33.7200 O   0  0  0  0  0  0  0  0  0  0  0  0
   27.0300   26.2200   34.8800 C   0  0  0  0  0  0  0  0  0  0  0  0
   27.3500   26.7300   36.0700 N   0  0  0  0  0  0  0  0  0  0  0  0
   28.5700   27.1800   36.3300 N   0  0  0  0  0  0  0  0  0  0  0  0
   29.5300   27.1100   35.3900 C   0  0  0  0  0  0  0  0  0  0  0  0
   30.8300   27.5700   35.6500 C   0  0  0  0  0  0  0  0  0  0  0  0
   31.8500   27.5400   34.6900 C   0  0  0  0  0  0  0  0  0  0  0  0
   31.5100   27.1200   33.4000 C   0  0  0  0  0  0  0  0  0  0  0  0
   30.2200   26.6300   33.1100 C   0  0  0  0  0  0  0  0  0  0  0  0
   29.2400   26.6600   34.1000 C   0  0  0  0  0  0  0  0  0  0  0  0
   27.9300   26.2600   33.8100 C   0  0  0  0  0  0  0  0  0  0  0  0
   27.5200   25.7100   32.6100 N   0  0  0  0  0  0  0  0  0  0  0  0
   31.1746   28.0532   36.9995 C   0  0  0  0  0  0  0  0  0  0  0  0
   31.3705   27.2377   38.0997 C   0  0  0  0  0  0  0  0  0  0  0  0
   31.6979   28.0824   39.1390 C   0  0  0  0  0  0  0  0  0  0  0  0
   32.0881   27.6770   40.5217 C   0  0  0  0  0  0  0  0  0  0  0  0
   31.8533   28.7831   41.4601 N   0  0  0  0  0  0  0  0  0  0  0  0
   32.0455   30.1497   41.0279 C   0  0  0  0  0  0  0  0  0  0  0  0
   32.1805   31.0721   41.8782 O   0  0  0  0  0  0  0  0  0  0  0  0
   32.0996   30.5024   39.5639 C   0  0  0  0  0  0  0  0  0  0  0  0
   31.7119   29.3632   38.7281 N   0  0  0  0  0  0  0  0  0  0  0  0
   31.4029   29.3658   37.4105 C   0  0  0  0  0  0  0  0  0  0  0  0
   31.2772   30.6191   36.5791 C   0  0  0  0  0  0  0  0  0  0  0  0
   31.0307   30.3306   35.2499 F   0  0  0  0  0  0  0  0  0  0  0  0
   32.4497   31.3483   36.6611 F   0  0  0  0  0  0  0  0  0  0  0  0
   30.2318   31.3847   37.0626 F   0  0  0  0  0  0  0  0  0  0  0  0
   31.7740   28.4810   42.8938 C   0  0  0  0  0  0  0  0  0  0  0  0
   30.5814   27.6168   43.2851 C   0  0  0  0  0  0  0  0  0  0  0  0
   30.5735   29.1029   43.5954 C   0  0  0  0  0  0  0  0  0  0  0  0
  1  2  1  0
  2  3  2  0
  2  4  1  0
  4  5  2  0
  5  6  1  0
  6  7  2  0
  7  8  1  0
  8  9  2  0
  9 10  1  0
 10 11  2  0
 11 12  1  0
 12 13  2  0
 13 14  1  0
  8 15  1  0
 15 16  1  0
 16 17  2  0
 17 18  1  0
 18 19  1  0
 19 20  1  0
 20 21  2  0
 20 22  1  0
 22 23  1  0
 23 24  1  0
 24 25  1  0
 25 26  1  0
 25 27  1  0
 25 28  1  0
 19 29  1  0
 29 30  1  0
 30 31  1  0
 13  4  1  0
 24 15  2  0
 31 29  1  0
 12  7  1  0
 23 17  1  0
M  END
>  <AAScore>  (1) 
231.6257890274996

>  <RootName>  (1) 
./4ZLY/04_DeltaGEst/trajectory_02/rank_01/lead_0413

$$$$
