confid_19
     RDKit          3D

 26 28  0  0  0  0  0  0  0  0999 V2000
   24.6900   26.1200   35.5300 N   0  0  0  0  0  0  0  0  0  0  0  0
   25.6600   25.6700   34.6600 C   0  0  0  0  0  0  0  0  0  0  0  0
   25.2400   25.0100   33.7200 O   0  0  0  0  0  0  0  0  0  0  0  0
   27.0300   26.2200   34.8800 C   0  0  0  0  0  0  0  0  0  0  0  0
   27.3500   26.7300   36.0700 N   0  0  0  0  0  0  0  0  0  0  0  0
   28.5700   27.1800   36.3300 N   0  0  0  0  0  0  0  0  0  0  0  0
   29.5300   27.1100   35.3900 C   0  0  0  0  0  0  0  0  0  0  0  0
   30.8300   27.5700   35.6500 C   0  0  0  0  0  0  0  0  0  0  0  0
   31.8500   27.5400   34.6900 C   0  0  0  0  0  0  0  0  0  0  0  0
   31.5100   27.1200   33.4000 C   0  0  0  0  0  0  0  0  0  0  0  0
   30.2200   26.6300   33.1100 C   0  0  0  0  0  0  0  0  0  0  0  0
   29.2400   26.6600   34.1000 C   0  0  0  0  0  0  0  0  0  0  0  0
   27.9300   26.2600   33.8100 C   0  0  0  0  0  0  0  0  0  0  0  0
   27.5200   25.7100   32.6100 N   0  0  0  0  0  0  0  0  0  0  0  0
   31.1452   28.0673   36.9576 N   0  0  0  0  0  0  0  0  0  0  0  0
   31.8608   27.2010   37.9004 C   0  0  0  0  0  0  0  0  0  0  0  0
   32.0089   27.8701   39.2716 C   0  0  0  0  0  0  0  0  0  0  0  0
   30.7377   28.4946   39.6730 N   0  0  0  0  0  0  0  0  0  0  0  0
   30.2797   28.3740   41.0379 C   0  0  0  0  0  0  0  0  0  0  0  0
   31.0940   28.0482   41.9448 O   0  0  0  0  0  0  0  0  0  0  0  0
   28.8311   28.5607   41.4167 C   0  0  0  0  0  0  0  0  0  0  0  0
   28.0731   27.2166   41.4518 C   0  0  0  0  0  0  0  0  0  0  0  0
   26.6893   27.4070   42.0849 C   0  0  0  0  0  0  0  0  0  0  0  0
   27.9269   26.6037   40.0504 C   0  0  0  0  0  0  0  0  0  0  0  0
   30.0023   29.3364   38.7116 C   0  0  0  0  0  0  0  0  0  0  0  0
   30.7131   29.4090   37.3574 C   0  0  0  0  0  0  0  0  0  0  0  0
  1  2  1  0
  2  3  2  0
  2  4  1  0
  4  5  2  0
  5  6  1  0
  6  7  2  0
  7  8  1  0
  8  9  2  0
  9 10  1  0
 10 11  2  0
 11 12  1  0
 12 13  2  0
 13 14  1  0
  8 15  1  0
 15 16  1  0
 16 17  1  0
 17 18  1  0
 18 19  1  0
 19 20  2  0
 19 21  1  0
 21 22  1  0
 22 23  1  0
 22 24  1  0
 18 25  1  0
 25 26  1  0
 13  4  1  0
 26 15  1  0
 12  7  1  0
M  END
>  <AAScore>  (1) 
91.0850253299495

>  <RootName>  (1) 
./4ZLY/04_DeltaGEst/trajectory_02/rank_01/lead_0133

$$$$
