confid_6
     RDKit          3D

 27 30  0  0  0  0  0  0  0  0999 V2000
   24.5500   26.3900   36.2500 N   0  0  0  0  0  0  0  0  0  0  0  0
   25.6000   26.1300   35.4000 C   0  0  0  0  0  0  0  0  0  0  0  0
   25.4300   25.4300   34.4200 O   0  0  0  0  0  0  0  0  0  0  0  0
   26.9800   26.6300   35.7100 C   0  0  0  0  0  0  0  0  0  0  0  0
   27.3200   26.8200   36.9800 N   0  0  0  0  0  0  0  0  0  0  0  0
   28.4700   27.4000   37.3100 N   0  0  0  0  0  0  0  0  0  0  0  0
   29.4000   27.6300   36.3700 C   0  0  0  0  0  0  0  0  0  0  0  0
   30.6600   28.0500   36.8000 C   0  0  0  0  0  0  0  0  0  0  0  0
   31.5700   28.3600   35.7800 C   0  0  0  0  0  0  0  0  0  0  0  0
   31.3700   28.1000   34.4300 C   0  0  0  0  0  0  0  0  0  0  0  0
   30.1200   27.5900   34.0500 C   0  0  0  0  0  0  0  0  0  0  0  0
   29.1500   27.3400   35.0300 C   0  0  0  0  0  0  0  0  0  0  0  0
   27.8800   26.8900   34.6600 C   0  0  0  0  0  0  0  0  0  0  0  0
   27.4800   26.6100   33.3700 N   0  0  0  0  0  0  0  0  0  0  0  0
   23.1637   26.2034   35.9158 C   0  0  0  0  0  0  0  0  0  0  0  0
   22.2844   25.8881   36.9051 N   0  0  0  0  0  0  0  0  0  0  0  0
   20.9563   25.7271   36.6685 C   0  0  0  0  0  0  0  0  0  0  0  0
   20.4486   25.8845   35.3729 C   0  0  0  0  0  0  0  0  0  0  0  0
   18.9827   25.7501   35.0994 C   0  0  0  0  0  0  0  0  0  0  0  0
   18.7617   25.1390   33.7171 C   0  0  0  0  0  0  0  0  0  0  0  0
   19.4811   25.8968   32.6777 N   0  0  0  0  0  0  0  0  0  0  0  0
   20.7980   26.5096   32.9438 C   0  0  0  0  0  0  0  0  0  0  0  0
   21.3216   26.2366   34.3337 C   0  0  0  0  0  0  0  0  0  0  0  0
   22.6845   26.4107   34.6107 C   0  0  0  0  0  0  0  0  0  0  0  0
   18.9759   25.9439   31.3241 C   0  0  0  0  0  0  0  0  0  0  0  0
   19.4877   26.7419   30.4918 O   0  0  0  0  0  0  0  0  0  0  0  0
   17.8375   25.0776   30.8733 C   0  0  0  0  0  0  0  0  0  0  0  0
  1  2  1  0
  2  3  2  0
  2  4  1  0
  4  5  2  0
  5  6  1  0
  6  7  2  0
  7  8  1  0
  8  9  2  0
  9 10  1  0
 10 11  2  0
 11 12  1  0
 12 13  2  0
 13 14  1  0
  1 15  1  0
 15 16  2  0
 16 17  1  0
 17 18  2  0
 18 19  1  0
 19 20  1  0
 20 21  1  0
 21 22  1  0
 22 23  1  0
 23 24  2  0
 21 25  1  0
 25 26  2  0
 25 27  1  0
 13  4  1  0
 24 15  1  0
 12  7  1  0
 23 18  1  0
M  END
>  <AAScore>  (1) 
1183.5344329278764

>  <RootName>  (1) 
./4ZLY/04_DeltaGEst/trajectory_01/rank_00/lead_0444

$$$$
