confid_19
     RDKit          3D

 30 33  0  0  0  0  0  0  0  0999 V2000
   24.5700   26.8800   35.5900 N   0  0  0  0  0  0  0  0  0  0  0  0
   25.5000   26.4000   34.6900 C   0  0  0  0  0  0  0  0  0  0  0  0
   25.1700   25.5200   33.9100 O   0  0  0  0  0  0  0  0  0  0  0  0
   26.8400   27.0200   34.7400 C   0  0  0  0  0  0  0  0  0  0  0  0
   27.3800   27.2800   35.9400 N   0  0  0  0  0  0  0  0  0  0  0  0
   28.6200   27.7400   36.0300 N   0  0  0  0  0  0  0  0  0  0  0  0
   29.3800   28.0000   34.9600 C   0  0  0  0  0  0  0  0  0  0  0  0
   30.6700   28.5000   35.1300 C   0  0  0  0  0  0  0  0  0  0  0  0
   31.5400   28.6100   34.0300 C   0  0  0  0  0  0  0  0  0  0  0  0
   31.0900   28.2200   32.7700 C   0  0  0  0  0  0  0  0  0  0  0  0
   29.8000   27.7000   32.6000 C   0  0  0  0  0  0  0  0  0  0  0  0
   28.9600   27.5500   33.7100 C   0  0  0  0  0  0  0  0  0  0  0  0
   27.6600   27.0300   33.5900 C   0  0  0  0  0  0  0  0  0  0  0  0
   27.1600   26.7400   32.3400 N   0  0  0  0  0  0  0  0  0  0  0  0
   23.1428   26.9043   35.3726 C   0  0  0  0  0  0  0  0  0  0  0  0
   22.6689   26.3521   34.2779 N   0  0  0  0  0  0  0  0  0  0  0  0
   21.3397   26.1976   33.7493 C   0  0  0  0  0  0  0  0  0  0  0  0
   20.2770   25.7915   34.4665 C   0  0  0  0  0  0  0  0  0  0  0  0
   20.4020   25.5376   35.9305 C   0  0  0  0  0  0  0  0  0  0  0  0
   19.9751   26.7703   36.6089 N   0  0  0  0  0  0  0  0  0  0  0  0
   18.5354   27.0717   36.3304 C   0  0  0  0  0  0  0  0  0  0  0  0
   17.9300   26.3553   35.0804 C   0  0  0  0  0  0  0  0  0  0  0  0
   18.9368   26.1041   34.0338 N   0  0  0  0  0  0  0  0  0  0  0  0
   18.5455   26.1884   32.6206 C   0  0  0  0  0  0  0  0  0  0  0  0
   18.6032   27.6409   32.1280 C   0  0  0  0  0  0  0  0  0  0  0  0
   18.2192   27.7521   30.6510 C   0  0  0  0  0  0  0  0  0  0  0  0
   19.1725   27.0723   29.8595 O   0  0  0  0  0  0  0  0  0  0  0  0
   18.7605   27.0959   28.5123 C   0  0  0  0  0  0  0  0  0  0  0  0
   20.8319   27.9264   36.2339 C   0  0  0  0  0  0  0  0  0  0  0  0
   22.3350   27.6557   36.4364 C   0  0  0  0  0  0  0  0  0  0  0  0
  1  2  1  0
  2  3  2  0
  2  4  1  0
  4  5  2  0
  5  6  1  0
  6  7  2  0
  7  8  1  0
  8  9  2  0
  9 10  1  0
 10 11  2  0
 11 12  1  0
 12 13  2  0
 13 14  1  0
  1 15  1  0
 15 16  2  0
 16 17  1  0
 17 18  2  0
 18 19  1  0
 19 20  1  0
 20 21  1  0
 21 22  1  0
 22 23  1  0
 23 24  1  0
 24 25  1  0
 25 26  1  0
 26 27  1  0
 27 28  1  0
 20 29  1  0
 29 30  1  0
 13  4  1  0
 30 15  1  0
 12  7  1  0
 23 18  1  0
M  END
>  <AAScore>  (1) 
790.2742778195635

>  <RootName>  (1) 
./4ZLY/04_DeltaGEst/trajectory_05/rank_00/lead_0062

$$$$
