confid_14
     RDKit          3D

 29 32  0  0  0  0  0  0  0  0999 V2000
   25.3300   26.2600   34.7600 N   0  0  0  0  0  0  0  0  0  0  0  0
   26.1200   25.9200   33.6900 C   0  0  0  0  0  0  0  0  0  0  0  0
   25.6300   25.1100   32.9400 O   0  0  0  0  0  0  0  0  0  0  0  0
   27.5200   26.3800   33.4600 C   0  0  0  0  0  0  0  0  0  0  0  0
   28.1600   26.6300   34.6100 N   0  0  0  0  0  0  0  0  0  0  0  0
   29.4800   26.8500   34.5700 N   0  0  0  0  0  0  0  0  0  0  0  0
   30.1900   26.7800   33.4400 C   0  0  0  0  0  0  0  0  0  0  0  0
   31.5600   27.0500   33.5000 C   0  0  0  0  0  0  0  0  0  0  0  0
   32.2700   27.2400   32.3100 C   0  0  0  0  0  0  0  0  0  0  0  0
   31.6100   27.2500   31.0800 C   0  0  0  0  0  0  0  0  0  0  0  0
   30.2700   26.8700   31.0600 C   0  0  0  0  0  0  0  0  0  0  0  0
   29.5100   26.6900   32.2300 C   0  0  0  0  0  0  0  0  0  0  0  0
   28.1400   26.4100   32.2000 C   0  0  0  0  0  0  0  0  0  0  0  0
   27.4300   26.1300   31.0500 N   0  0  0  0  0  0  0  0  0  0  0  0
   23.9148   26.0053   34.8383 C   0  0  0  0  0  0  0  0  0  0  0  0
   23.1971   26.0400   33.7443 N   0  0  0  0  0  0  0  0  0  0  0  0
   21.7737   25.8705   33.6658 C   0  0  0  0  0  0  0  0  0  0  0  0
   20.9246   26.7160   34.2783 C   0  0  0  0  0  0  0  0  0  0  0  0
   21.4367   27.8756   35.0658 C   0  0  0  0  0  0  0  0  0  0  0  0
   21.5146   27.4009   36.4371 N   0  0  0  0  0  0  0  0  0  0  0  0
   20.3052   26.8163   36.9743 C   0  0  0  0  0  0  0  0  0  0  0  0
   20.1924   26.6128   38.2115 O   0  0  0  0  0  0  0  0  0  0  0  0
   19.1601   26.4383   36.0434 C   0  0  0  0  0  0  0  0  0  0  0  0
   19.6049   26.2690   34.6464 N   0  0  0  0  0  0  0  0  0  0  0  0
   18.6669   25.7540   33.6412 C   0  0  0  0  0  0  0  0  0  0  0  0
   18.3940   26.8156   32.5720 C   0  0  0  0  0  0  0  0  0  0  0  0
   17.3389   26.3476   31.5737 C   0  0  0  0  0  0  0  0  0  0  0  0
   22.8224   26.9705   36.9429 C   0  0  0  0  0  0  0  0  0  0  0  0
   23.3131   25.7062   36.2022 C   0  0  0  0  0  0  0  0  0  0  0  0
  1  2  1  0
  2  3  2  0
  2  4  1  0
  4  5  2  0
  5  6  1  0
  6  7  2  0
  7  8  1  0
  8  9  2  0
  9 10  1  0
 10 11  2  0
 11 12  1  0
 12 13  2  0
 13 14  1  0
  1 15  1  0
 15 16  2  0
 16 17  1  0
 17 18  2  0
 18 19  1  0
 19 20  1  0
 20 21  1  0
 21 22  2  0
 21 23  1  0
 23 24  1  0
 24 25  1  0
 25 26  1  0
 26 27  1  0
 20 28  1  0
 28 29  1  0
 13  4  1  0
 29 15  1  0
 12  7  1  0
 24 18  1  0
M  END
>  <AAScore>  (1) 
625.7031834522921

>  <RootName>  (1) 
./4ZLY/04_DeltaGEst/trajectory_03/rank_00/lead_0113

$$$$
