confid_2
     RDKit          3D

 27 30  0  0  0  0  0  0  0  0999 V2000
   24.5500   26.3900   36.2500 N   0  0  0  0  0  0  0  0  0  0  0  0
   25.6000   26.1300   35.4000 C   0  0  0  0  0  0  0  0  0  0  0  0
   25.4300   25.4300   34.4200 O   0  0  0  0  0  0  0  0  0  0  0  0
   26.9800   26.6300   35.7100 C   0  0  0  0  0  0  0  0  0  0  0  0
   27.3200   26.8200   36.9800 N   0  0  0  0  0  0  0  0  0  0  0  0
   28.4700   27.4000   37.3100 N   0  0  0  0  0  0  0  0  0  0  0  0
   29.4000   27.6300   36.3700 C   0  0  0  0  0  0  0  0  0  0  0  0
   30.6600   28.0500   36.8000 C   0  0  0  0  0  0  0  0  0  0  0  0
   31.5700   28.3600   35.7800 C   0  0  0  0  0  0  0  0  0  0  0  0
   31.3700   28.1000   34.4300 C   0  0  0  0  0  0  0  0  0  0  0  0
   30.1200   27.5900   34.0500 C   0  0  0  0  0  0  0  0  0  0  0  0
   29.1500   27.3400   35.0300 C   0  0  0  0  0  0  0  0  0  0  0  0
   27.8800   26.8900   34.6600 C   0  0  0  0  0  0  0  0  0  0  0  0
   27.4800   26.6100   33.3700 N   0  0  0  0  0  0  0  0  0  0  0  0
   23.2107   25.8869   36.0984 C   0  0  0  0  0  0  0  0  0  0  0  0
   22.8814   25.0528   35.0776 N   0  0  0  0  0  0  0  0  0  0  0  0
   21.6180   24.5818   34.9348 C   0  0  0  0  0  0  0  0  0  0  0  0
   20.6184   24.9523   35.8434 C   0  0  0  0  0  0  0  0  0  0  0  0
   19.2189   24.4096   35.6799 C   0  0  0  0  0  0  0  0  0  0  0  0
   18.8624   23.4134   36.7176 N   0  0  0  0  0  0  0  0  0  0  0  0
   19.4380   22.0948   36.4075 C   0  0  0  0  0  0  0  0  0  0  0  0
   19.2074   23.8117   38.1029 C   0  0  0  0  0  0  0  0  0  0  0  0
   18.8753   25.2865   38.3900 C   0  0  0  0  0  0  0  0  0  0  0  0
   19.9938   26.2853   37.9724 C   0  0  1  0  0  0  0  0  0  0  0  0
   20.9756   25.8021   36.9140 C   0  0  0  0  0  0  0  0  0  0  0  0
   22.2590   26.2484   36.9976 N   0  0  0  0  0  0  0  0  0  0  0  0
   19.3956   27.6316   37.5508 C   0  0  0  0  0  0  0  0  0  0  0  0
  1  2  1  0
  2  3  2  0
  2  4  1  0
  4  5  2  0
  5  6  1  0
  6  7  2  0
  7  8  1  0
  8  9  2  0
  9 10  1  0
 10 11  2  0
 11 12  1  0
 12 13  2  0
 13 14  1  0
  1 15  1  0
 15 16  2  0
 16 17  1  0
 17 18  2  0
 18 19  1  0
 19 20  1  0
 20 21  1  0
 20 22  1  0
 22 23  1  0
 23 24  1  0
 24 25  1  0
 25 26  2  0
 24 27  1  6
 13  4  1  0
 26 15  1  0
 12  7  1  0
 25 18  1  0
M  END
>  <AAScore>  (1) 
3665.297002390524

>  <RootName>  (1) 
./4ZLY/04_DeltaGEst/trajectory_01/rank_00/lead_0026

$$$$
