confid_2
     RDKit          3D

 28 32  0  0  0  0  0  0  0  0999 V2000
   24.4800   26.1000   36.1300 N   0  0  0  0  0  0  0  0  0  0  0  0
   25.2500   26.2500   34.9900 C   0  0  0  0  0  0  0  0  0  0  0  0
   24.7400   25.7600   33.9900 O   0  0  0  0  0  0  0  0  0  0  0  0
   26.5900   26.8900   34.9600 C   0  0  0  0  0  0  0  0  0  0  0  0
   27.0600   27.2400   36.1600 N   0  0  0  0  0  0  0  0  0  0  0  0
   28.3000   27.7100   36.2400 N   0  0  0  0  0  0  0  0  0  0  0  0
   29.0500   27.9600   35.1500 C   0  0  0  0  0  0  0  0  0  0  0  0
   30.3400   28.4900   35.2600 C   0  0  0  0  0  0  0  0  0  0  0  0
   31.1100   28.8200   34.1400 C   0  0  0  0  0  0  0  0  0  0  0  0
   30.5200   28.6700   32.8800 C   0  0  0  0  0  0  0  0  0  0  0  0
   29.2900   28.0200   32.7700 C   0  0  0  0  0  0  0  0  0  0  0  0
   28.5200   27.7100   33.8900 C   0  0  0  0  0  0  0  0  0  0  0  0
   27.2700   27.0800   33.7600 C   0  0  0  0  0  0  0  0  0  0  0  0
   26.7500   26.8800   32.4900 N   0  0  0  0  0  0  0  0  0  0  0  0
   23.0481   26.1555   36.1801 C   0  0  0  0  0  0  0  0  0  0  0  0
   22.3636   25.9218   37.3181 N   0  0  0  0  0  0  0  0  0  0  0  0
   21.0236   26.1240   37.1748 C   0  0  0  0  0  0  0  0  0  0  0  0
   20.1305   25.9906   38.3775 C   0  0  0  0  0  0  0  0  0  0  0  0
   18.7136   25.8672   38.0294 N   0  0  0  0  0  0  0  0  0  0  0  0
   18.0050   27.0342   37.5912 C   0  0  0  0  0  0  0  0  0  0  0  0
   16.9570   27.3892   38.1944 O   0  0  0  0  0  0  0  0  0  0  0  0
   18.5314   27.8665   36.4475 C   0  0  0  0  0  0  0  0  0  0  0  0
   19.2621   26.9872   35.4237 C   0  0  0  0  0  0  0  0  0  0  0  0
   20.6378   26.5823   35.8983 C   0  0  0  0  0  0  0  0  0  0  0  0
   22.0302   26.7055   34.9499 S   0  0  0  0  0  0  0  0  0  0  0  0
   18.0800   24.5420   37.9005 C   0  0  0  0  0  0  0  0  0  0  0  0
   18.1807   23.6504   39.1306 C   0  0  0  0  0  0  0  0  0  0  0  0
   16.8701   24.3545   38.8150 C   0  0  0  0  0  0  0  0  0  0  0  0
  1  2  1  0
  2  3  2  0
  2  4  1  0
  4  5  2  0
  5  6  1  0
  6  7  2  0
  7  8  1  0
  8  9  2  0
  9 10  1  0
 10 11  2  0
 11 12  1  0
 12 13  2  0
 13 14  1  0
  1 15  1  0
 15 16  2  0
 16 17  1  0
 17 18  1  0
 18 19  1  0
 19 20  1  0
 20 21  2  0
 20 22  1  0
 22 23  1  0
 23 24  1  0
 24 25  1  0
 19 26  1  0
 26 27  1  0
 27 28  1  0
 13  4  1  0
 25 15  1  0
 28 26  1  0
 12  7  1  0
 24 17  2  0
M  END
>  <AAScore>  (1) 
235.2577389606176

>  <RootName>  (1) 
./4ZLY/04_DeltaGEst/trajectory_00/rank_01/lead_0384

$$$$
