confid_2
     RDKit          3D

 27 30  0  0  0  0  0  0  0  0999 V2000
   24.6900   26.1200   35.5300 N   0  0  0  0  0  0  0  0  0  0  0  0
   25.6600   25.6700   34.6600 C   0  0  0  0  0  0  0  0  0  0  0  0
   25.2400   25.0100   33.7200 O   0  0  0  0  0  0  0  0  0  0  0  0
   27.0300   26.2200   34.8800 C   0  0  0  0  0  0  0  0  0  0  0  0
   27.3500   26.7300   36.0700 N   0  0  0  0  0  0  0  0  0  0  0  0
   28.5700   27.1800   36.3300 N   0  0  0  0  0  0  0  0  0  0  0  0
   29.5300   27.1100   35.3900 C   0  0  0  0  0  0  0  0  0  0  0  0
   30.8300   27.5700   35.6500 C   0  0  0  0  0  0  0  0  0  0  0  0
   31.8500   27.5400   34.6900 C   0  0  0  0  0  0  0  0  0  0  0  0
   31.5100   27.1200   33.4000 C   0  0  0  0  0  0  0  0  0  0  0  0
   30.2200   26.6300   33.1100 C   0  0  0  0  0  0  0  0  0  0  0  0
   29.2400   26.6600   34.1000 C   0  0  0  0  0  0  0  0  0  0  0  0
   27.9300   26.2600   33.8100 C   0  0  0  0  0  0  0  0  0  0  0  0
   27.5200   25.7100   32.6100 N   0  0  0  0  0  0  0  0  0  0  0  0
   23.5812   25.3294   36.0038 C   0  0  0  0  0  0  0  0  0  0  0  0
   22.5594   25.9912   36.4846 N   0  0  0  0  0  0  0  0  0  0  0  0
   21.2662   25.7236   37.0696 C   0  0  0  0  0  0  0  0  0  0  0  0
   20.5672   24.5747   37.0632 C   0  0  0  0  0  0  0  0  0  0  0  0
   19.2090   24.5724   37.7398 C   0  0  0  0  0  0  0  0  0  0  0  0
   18.5344   23.2558   37.6755 N   0  0  0  0  0  0  0  0  0  0  0  0
   17.2530   23.3112   38.4145 C   0  0  0  0  0  0  0  0  0  0  0  0
   16.2696   22.2730   37.8752 C   0  0  0  0  0  0  0  0  0  0  0  0
   19.4181   22.2030   38.2225 C   0  0  0  0  0  0  0  0  0  0  0  0
   20.4898   21.8883   37.2252 C   0  0  0  0  0  0  0  0  0  0  0  0
   21.1812   23.0654   36.3573 S   0  0  0  0  0  4  0  0  0  0  0  0
   22.8674   23.0478   36.9452 C   0  0  0  0  0  0  0  0  0  0  0  0
   23.7064   23.8181   35.9482 C   0  0  0  0  0  0  0  0  0  0  0  0
  1  2  1  0
  2  3  2  0
  2  4  1  0
  4  5  2  0
  5  6  1  0
  6  7  2  0
  7  8  1  0
  8  9  2  0
  9 10  1  0
 10 11  2  0
 11 12  1  0
 12 13  2  0
 13 14  1  0
  1 15  1  0
 15 16  2  0
 16 17  1  0
 17 18  2  0
 18 19  1  0
 19 20  1  0
 20 21  1  0
 21 22  1  0
 20 23  1  0
 23 24  1  0
 24 25  2  0
 25 26  1  1
 26 27  1  0
 13  4  1  0
 27 15  1  0
 12  7  1  0
 25 18  1  0
M  END
>  <AAScore>  (1) 
807.3738719801506

>  <RootName>  (1) 
./4ZLY/04_DeltaGEst/trajectory_02/rank_00/lead_0217

$$$$
