confid_16
     RDKit          3D

 28 31  0  0  0  0  0  0  0  0999 V2000
   24.6900   26.1200   35.5300 N   0  0  0  0  0  0  0  0  0  0  0  0
   25.6600   25.6700   34.6600 C   0  0  0  0  0  0  0  0  0  0  0  0
   25.2400   25.0100   33.7200 O   0  0  0  0  0  0  0  0  0  0  0  0
   27.0300   26.2200   34.8800 C   0  0  0  0  0  0  0  0  0  0  0  0
   27.3500   26.7300   36.0700 N   0  0  0  0  0  0  0  0  0  0  0  0
   28.5700   27.1800   36.3300 N   0  0  0  0  0  0  0  0  0  0  0  0
   29.5300   27.1100   35.3900 C   0  0  0  0  0  0  0  0  0  0  0  0
   30.8300   27.5700   35.6500 C   0  0  0  0  0  0  0  0  0  0  0  0
   31.8500   27.5400   34.6900 C   0  0  0  0  0  0  0  0  0  0  0  0
   31.5100   27.1200   33.4000 C   0  0  0  0  0  0  0  0  0  0  0  0
   30.2200   26.6300   33.1100 C   0  0  0  0  0  0  0  0  0  0  0  0
   29.2400   26.6600   34.1000 C   0  0  0  0  0  0  0  0  0  0  0  0
   27.9300   26.2600   33.8100 C   0  0  0  0  0  0  0  0  0  0  0  0
   27.5200   25.7100   32.6100 N   0  0  0  0  0  0  0  0  0  0  0  0
   23.3363   26.4316   35.1432 C   0  0  0  0  0  0  0  0  0  0  0  0
   23.0041   26.5468   33.8311 N   0  0  0  0  0  0  0  0  0  0  0  0
   21.7476   26.8565   33.4252 C   0  0  0  0  0  0  0  0  0  0  0  0
   20.7218   27.0976   34.3579 C   0  0  0  0  0  0  0  0  0  0  0  0
   19.3100   27.2015   33.7949 C   0  0  0  0  0  0  0  0  0  0  0  0
   18.2670   28.0895   34.5026 C   0  0  0  0  0  0  0  0  0  0  0  0
   18.7069   29.4690   34.8266 N   0  0  0  0  0  0  0  0  0  0  0  0
   19.0882   30.2372   33.6316 C   0  0  0  0  0  0  0  0  0  0  0  0
   19.7187   29.5977   35.8981 C   0  0  0  0  0  0  0  0  0  0  0  0
   19.5846   28.5176   36.9373 C   0  0  0  0  0  0  0  0  0  0  0  0
   20.1416   27.3517   36.7944 N   0  0  0  0  0  0  0  0  0  0  0  0
   21.0528   27.0086   35.7395 C   0  0  0  0  0  0  0  0  0  0  0  0
   22.3576   26.6615   36.1173 C   0  0  0  0  0  0  0  0  0  0  0  0
   22.6758   26.5817   37.4354 F   0  0  0  0  0  0  0  0  0  0  0  0
  1  2  1  0
  2  3  2  0
  2  4  1  0
  4  5  2  0
  5  6  1  0
  6  7  2  0
  7  8  1  0
  8  9  2  0
  9 10  1  0
 10 11  2  0
 11 12  1  0
 12 13  2  0
 13 14  1  0
  1 15  1  0
 15 16  2  0
 16 17  1  0
 17 18  2  0
 18 19  1  0
 19 20  1  0
 20 21  1  0
 21 22  1  0
 21 23  1  0
 23 24  1  0
 24 25  2  0
 25 26  1  0
 26 27  2  0
 27 28  1  0
 13  4  1  0
 27 15  1  0
 12  7  1  0
 26 18  1  0
M  END
>  <AAScore>  (1) 
863.2891183592245

>  <RootName>  (1) 
./4ZLY/04_DeltaGEst/trajectory_02/rank_00/lead_0321

$$$$
