confid_1
     RDKit          3D

 26 28  0  0  0  0  0  0  0  0999 V2000
   24.5700   26.8800   35.5900 N   0  0  0  0  0  0  0  0  0  0  0  0
   25.5000   26.4000   34.6900 C   0  0  0  0  0  0  0  0  0  0  0  0
   25.1700   25.5200   33.9100 O   0  0  0  0  0  0  0  0  0  0  0  0
   26.8400   27.0200   34.7400 C   0  0  0  0  0  0  0  0  0  0  0  0
   27.3800   27.2800   35.9400 N   0  0  0  0  0  0  0  0  0  0  0  0
   28.6200   27.7400   36.0300 N   0  0  0  0  0  0  0  0  0  0  0  0
   29.3800   28.0000   34.9600 C   0  0  0  0  0  0  0  0  0  0  0  0
   30.6700   28.5000   35.1300 C   0  0  0  0  0  0  0  0  0  0  0  0
   31.5400   28.6100   34.0300 C   0  0  0  0  0  0  0  0  0  0  0  0
   31.0900   28.2200   32.7700 C   0  0  0  0  0  0  0  0  0  0  0  0
   29.8000   27.7000   32.6000 C   0  0  0  0  0  0  0  0  0  0  0  0
   28.9600   27.5500   33.7100 C   0  0  0  0  0  0  0  0  0  0  0  0
   27.6600   27.0300   33.5900 C   0  0  0  0  0  0  0  0  0  0  0  0
   27.1600   26.7400   32.3400 N   0  0  0  0  0  0  0  0  0  0  0  0
   23.3006   26.2651   35.8727 C   0  0  0  0  0  0  0  0  0  0  0  0
   22.9723   25.0547   35.3474 N   0  0  0  0  0  0  0  0  0  0  0  0
   21.7794   24.4588   35.6184 C   0  0  0  0  0  0  0  0  0  0  0  0
   21.4701   23.2134   35.0593 O   0  0  0  0  0  0  0  0  0  0  0  0
   22.3587   22.5145   34.1957 C   0  0  0  0  0  0  0  0  0  0  0  0
   20.8576   25.0992   36.4637 C   0  0  0  0  0  0  0  0  0  0  0  0
   21.2203   26.3444   37.0000 C   0  0  0  0  0  0  0  0  0  0  0  0
   22.4235   26.8947   36.6969 N   0  0  0  0  0  0  0  0  0  0  0  0
   19.5281   24.4567   36.7799 C   0  0  0  0  0  0  0  0  0  0  0  0
   18.7636   25.2492   37.6189 F   0  0  0  0  0  0  0  0  0  0  0  0
   19.7400   23.2382   37.3990 F   0  0  0  0  0  0  0  0  0  0  0  0
   18.8234   24.2517   35.6075 F   0  0  0  0  0  0  0  0  0  0  0  0
  1  2  1  0
  2  3  2  0
  2  4  1  0
  4  5  2  0
  5  6  1  0
  6  7  2  0
  7  8  1  0
  8  9  2  0
  9 10  1  0
 10 11  2  0
 11 12  1  0
 12 13  2  0
 13 14  1  0
  1 15  1  0
 15 16  2  0
 16 17  1  0
 17 18  1  0
 18 19  1  0
 17 20  2  0
 20 21  1  0
 21 22  2  0
 20 23  1  0
 23 24  1  0
 23 25  1  0
 23 26  1  0
 13  4  1  0
 22 15  1  0
 12  7  1  0
M  END
>  <AAScore>  (1) 
46207.52725279405

>  <RootName>  (1) 
./4ZLY/04_DeltaGEst/trajectory_05/rank_00/lead_0331

$$$$
