confid_1
     RDKit          3D

 26 29  0  0  0  0  0  0  0  0999 V2000
   24.4800   26.1000   36.1300 N   0  0  0  0  0  0  0  0  0  0  0  0
   25.2500   26.2500   34.9900 C   0  0  0  0  0  0  0  0  0  0  0  0
   24.7400   25.7600   33.9900 O   0  0  0  0  0  0  0  0  0  0  0  0
   26.5900   26.8900   34.9600 C   0  0  0  0  0  0  0  0  0  0  0  0
   27.0600   27.2400   36.1600 N   0  0  0  0  0  0  0  0  0  0  0  0
   28.3000   27.7100   36.2400 N   0  0  0  0  0  0  0  0  0  0  0  0
   29.0500   27.9600   35.1500 C   0  0  0  0  0  0  0  0  0  0  0  0
   30.3400   28.4900   35.2600 C   0  0  0  0  0  0  0  0  0  0  0  0
   31.1100   28.8200   34.1400 C   0  0  0  0  0  0  0  0  0  0  0  0
   30.5200   28.6700   32.8800 C   0  0  0  0  0  0  0  0  0  0  0  0
   29.2900   28.0200   32.7700 C   0  0  0  0  0  0  0  0  0  0  0  0
   28.5200   27.7100   33.8900 C   0  0  0  0  0  0  0  0  0  0  0  0
   27.2700   27.0800   33.7600 C   0  0  0  0  0  0  0  0  0  0  0  0
   26.7500   26.8800   32.4900 N   0  0  0  0  0  0  0  0  0  0  0  0
   23.4919   25.0682   36.3257 C   0  0  0  0  0  0  0  0  0  0  0  0
   23.7060   23.7623   35.8315 C   0  0  0  0  0  0  0  0  0  0  0  0
   22.7330   22.8027   36.0797 C   0  0  0  0  0  0  0  0  0  0  0  0
   22.6552   21.4083   35.7257 C   0  0  0  0  0  0  0  0  0  0  0  0
   23.5133   20.7609   35.0692 O   0  0  0  0  0  0  0  0  0  0  0  0
   21.4445   20.8577   36.2366 N   0  0  0  0  0  0  0  0  0  0  0  0
   20.7058   21.9084   36.9456 C   0  0  0  0  0  0  0  0  0  0  0  0
   21.6008   23.1025   36.7935 C   0  0  0  0  0  0  0  0  0  0  0  0
   21.3902   24.3476   37.2864 N   0  0  0  0  0  0  0  0  0  0  0  0
   22.3112   25.3339   37.0726 C   0  0  0  0  0  0  0  0  0  0  0  0
   21.9814   26.9353   37.7145 Cl  0  0  0  0  0  0  0  0  0  0  0  0
   21.0112   19.4756   36.0816 C   0  0  0  0  0  0  0  0  0  0  0  0
  1  2  1  0
  2  3  2  0
  2  4  1  0
  4  5  2  0
  5  6  1  0
  6  7  2  0
  7  8  1  0
  8  9  2  0
  9 10  1  0
 10 11  2  0
 11 12  1  0
 12 13  2  0
 13 14  1  0
  1 15  1  0
 15 16  2  0
 16 17  1  0
 17 18  1  0
 18 19  2  0
 18 20  1  0
 20 21  1  0
 21 22  1  0
 22 23  1  0
 23 24  2  0
 24 25  1  0
 20 26  1  0
 13  4  1  0
 24 15  1  0
 12  7  1  0
 22 17  2  0
M  END
>  <AAScore>  (1) 
1558.8190755206865

>  <RootName>  (1) 
./4ZLY/04_DeltaGEst/trajectory_00/rank_00/lead_0344

$$$$
