confid_1
     RDKit          3D

 28 31  0  0  0  0  0  0  0  0999 V2000
   24.5500   26.3900   36.2500 N   0  0  0  0  0  0  0  0  0  0  0  0
   25.6000   26.1300   35.4000 C   0  0  0  0  0  0  0  0  0  0  0  0
   25.4300   25.4300   34.4200 O   0  0  0  0  0  0  0  0  0  0  0  0
   26.9800   26.6300   35.7100 C   0  0  0  0  0  0  0  0  0  0  0  0
   27.3200   26.8200   36.9800 N   0  0  0  0  0  0  0  0  0  0  0  0
   28.4700   27.4000   37.3100 N   0  0  0  0  0  0  0  0  0  0  0  0
   29.4000   27.6300   36.3700 C   0  0  0  0  0  0  0  0  0  0  0  0
   30.6600   28.0500   36.8000 C   0  0  0  0  0  0  0  0  0  0  0  0
   31.5700   28.3600   35.7800 C   0  0  0  0  0  0  0  0  0  0  0  0
   31.3700   28.1000   34.4300 C   0  0  0  0  0  0  0  0  0  0  0  0
   30.1200   27.5900   34.0500 C   0  0  0  0  0  0  0  0  0  0  0  0
   29.1500   27.3400   35.0300 C   0  0  0  0  0  0  0  0  0  0  0  0
   27.8800   26.8900   34.6600 C   0  0  0  0  0  0  0  0  0  0  0  0
   27.4800   26.6100   33.3700 N   0  0  0  0  0  0  0  0  0  0  0  0
   23.1937   25.8543   36.0421 C   0  0  1  0  0  0  0  0  0  0  0  0
   23.1325   24.3261   36.2633 C   0  0  0  0  0  0  0  0  0  0  0  0
   23.9794   23.8529   37.4536 C   0  0  0  0  0  0  0  0  0  0  0  0
   23.9436   24.8067   38.5724 N   0  0  0  0  0  0  0  0  0  0  0  0
   25.1297   25.1032   39.3423 C   0  0  0  0  0  0  0  0  0  0  0  0
   25.1600   26.1352   40.0668 O   0  0  0  0  0  0  0  0  0  0  0  0
   26.3432   24.2243   39.2956 C   0  0  0  0  0  0  0  0  0  0  0  0
   22.6715   25.2617   39.0634 C   0  0  0  0  0  0  0  0  0  0  0  0
   21.8099   26.0750   38.2794 C   0  0  0  0  0  0  0  0  0  0  0  0
   20.5832   26.4874   38.8360 C   0  0  0  0  0  0  0  0  0  0  0  0
   20.2019   26.0860   40.1168 C   0  0  0  0  0  0  0  0  0  0  0  0
   21.0437   25.2755   40.8733 C   0  0  0  0  0  0  0  0  0  0  0  0
   22.2704   24.8675   40.3521 C   0  0  0  0  0  0  0  0  0  0  0  0
   22.1529   26.6197   36.8989 C   0  0  0  0  0  0  0  0  0  0  0  0
  1  2  1  0
  2  3  2  0
  2  4  1  0
  4  5  2  0
  5  6  1  0
  6  7  2  0
  7  8  1  0
  8  9  2  0
  9 10  1  0
 10 11  2  0
 11 12  1  0
 12 13  2  0
 13 14  1  0
 15  1  1  1
 15 16  1  0
 16 17  1  0
 17 18  1  0
 18 19  1  0
 19 20  2  0
 19 21  1  0
 18 22  1  0
 22 23  2  0
 23 24  1  0
 24 25  2  0
 25 26  1  0
 26 27  2  0
 23 28  1  0
 13  4  1  0
 28 15  1  0
 12  7  1  0
 27 22  1  0
M  END
>  <AAScore>  (1) 
616.2648649873726

>  <RootName>  (1) 
./4ZLY/04_DeltaGEst/trajectory_01/rank_00/lead_0323

$$$$
