confid_12
     RDKit          3D

 30 33  0  0  0  0  0  0  0  0999 V2000
   24.2000   26.2400   35.6900 N   0  0  0  0  0  0  0  0  0  0  0  0
   24.8500   26.2800   34.4800 C   0  0  0  0  0  0  0  0  0  0  0  0
   24.3100   25.7400   33.5400 O   0  0  0  0  0  0  0  0  0  0  0  0
   26.1800   26.9700   34.4700 C   0  0  0  0  0  0  0  0  0  0  0  0
   26.6500   27.6000   35.5500 N   0  0  0  0  0  0  0  0  0  0  0  0
   27.7900   28.2700   35.6200 N   0  0  0  0  0  0  0  0  0  0  0  0
   28.5400   28.3000   34.5100 C   0  0  0  0  0  0  0  0  0  0  0  0
   29.7700   28.9400   34.5600 C   0  0  0  0  0  0  0  0  0  0  0  0
   30.7000   28.8900   33.5000 C   0  0  0  0  0  0  0  0  0  0  0  0
   30.3700   28.1400   32.3700 C   0  0  0  0  0  0  0  0  0  0  0  0
   29.1200   27.5200   32.2800 C   0  0  0  0  0  0  0  0  0  0  0  0
   28.2100   27.6100   33.3300 C   0  0  0  0  0  0  0  0  0  0  0  0
   26.9700   26.9700   33.3100 C   0  0  0  0  0  0  0  0  0  0  0  0
   26.5300   26.2400   32.2200 N   0  0  0  0  0  0  0  0  0  0  0  0
   30.1371   29.6831   35.7345 N   0  0  0  0  0  0  0  0  0  0  0  0
   31.2481   29.2249   36.5746 C   0  0  0  0  0  0  0  0  0  0  0  0
   32.2735   30.3508   36.7328 C   0  0  0  0  0  0  0  0  0  0  0  0
   31.6207   31.6391   37.0214 N   0  0  0  0  0  0  0  0  0  0  0  0
   32.4295   32.7912   37.3181 C   0  0  0  0  0  0  0  0  0  0  0  0
   32.0608   33.6050   38.2081 O   0  0  0  0  0  0  0  0  0  0  0  0
   33.7033   33.0300   36.6063 C   0  0  0  0  0  0  0  0  0  0  0  0
   34.8659   33.1988   37.3716 C   0  0  0  0  0  0  0  0  0  0  0  0
   36.1014   33.3716   36.7537 C   0  0  0  0  0  0  0  0  0  0  0  0
   36.1959   33.3684   35.3643 C   0  0  0  0  0  0  0  0  0  0  0  0
   35.0495   33.2106   34.5690 C   0  0  0  0  0  0  0  0  0  0  0  0
   35.2026   33.2209   33.0696 C   0  0  0  0  0  0  0  0  0  0  0  0
   33.7772   33.0880   35.1880 C   0  0  0  0  0  0  0  0  0  0  0  0
   32.5232   33.0100   34.3413 C   0  0  0  0  0  0  0  0  0  0  0  0
   30.1605   31.7135   37.1618 C   0  0  0  0  0  0  0  0  0  0  0  0
   29.4852   30.9731   36.0014 C   0  0  0  0  0  0  0  0  0  0  0  0
  1  2  1  0
  2  3  2  0
  2  4  1  0
  4  5  2  0
  5  6  1  0
  6  7  2  0
  7  8  1  0
  8  9  2  0
  9 10  1  0
 10 11  2  0
 11 12  1  0
 12 13  2  0
 13 14  1  0
  8 15  1  0
 15 16  1  0
 16 17  1  0
 17 18  1  0
 18 19  1  0
 19 20  2  0
 19 21  1  0
 21 22  2  0
 22 23  1  0
 23 24  2  0
 24 25  1  0
 25 26  1  0
 25 27  2  0
 27 28  1  0
 18 29  1  0
 29 30  1  0
 13  4  1  0
 30 15  1  0
 12  7  1  0
 27 21  1  0
M  END
>  <AAScore>  (1) 
-8.01378443163316

>  <RootName>  (1) 
./4ZLY/04_DeltaGEst/trajectory_04/rank_01/lead_0381

$$$$
