confid_5
     RDKit          3D

 29 33  0  0  0  0  0  0  0  0999 V2000
   24.2000   26.2400   35.6900 N   0  0  0  0  0  0  0  0  0  0  0  0
   24.8500   26.2800   34.4800 C   0  0  0  0  0  0  0  0  0  0  0  0
   24.3100   25.7400   33.5400 O   0  0  0  0  0  0  0  0  0  0  0  0
   26.1800   26.9700   34.4700 C   0  0  0  0  0  0  0  0  0  0  0  0
   26.6500   27.6000   35.5500 N   0  0  0  0  0  0  0  0  0  0  0  0
   27.7900   28.2700   35.6200 N   0  0  0  0  0  0  0  0  0  0  0  0
   28.5400   28.3000   34.5100 C   0  0  0  0  0  0  0  0  0  0  0  0
   29.7700   28.9400   34.5600 C   0  0  0  0  0  0  0  0  0  0  0  0
   30.7000   28.8900   33.5000 C   0  0  0  0  0  0  0  0  0  0  0  0
   30.3700   28.1400   32.3700 C   0  0  0  0  0  0  0  0  0  0  0  0
   29.1200   27.5200   32.2800 C   0  0  0  0  0  0  0  0  0  0  0  0
   28.2100   27.6100   33.3300 C   0  0  0  0  0  0  0  0  0  0  0  0
   26.9700   26.9700   33.3100 C   0  0  0  0  0  0  0  0  0  0  0  0
   26.5300   26.2400   32.2200 N   0  0  0  0  0  0  0  0  0  0  0  0
   30.1236   29.7082   35.7220 N   0  0  0  0  0  0  0  0  0  0  0  0
   31.2483   29.2862   36.5669 C   0  0  0  0  0  0  0  0  0  0  0  0
   32.2884   30.4095   36.6503 C   0  0  0  0  0  0  0  0  0  0  0  0
   31.6494   31.7192   36.8402 N   0  0  0  0  0  0  0  0  0  0  0  0
   32.4727   32.8922   36.9102 C   0  0  0  0  0  0  0  0  0  0  0  0
   33.4833   33.0924   37.8312 C   0  0  0  0  0  0  0  0  0  0  0  0
   34.0433   34.3150   37.5050 C   0  0  0  0  0  0  0  0  0  0  0  0
   33.3515   34.8106   36.4139 C   0  0  0  0  0  0  0  0  0  0  0  0
   32.4082   33.9239   36.0398 N   0  0  0  0  0  0  0  0  0  0  0  0
   31.5018   34.0696   34.9037 C   0  0  0  0  0  0  0  0  0  0  0  0
   35.1367   35.0173   38.2513 C   0  0  0  0  0  0  0  0  0  0  0  0
   36.3566   35.3619   37.4085 C   0  0  0  0  0  0  0  0  0  0  0  0
   36.4226   34.2178   38.4062 C   0  0  0  0  0  0  0  0  0  0  0  0
   30.1966   31.8198   37.0229 C   0  0  0  0  0  0  0  0  0  0  0  0
   29.4801   31.0136   35.9336 C   0  0  0  0  0  0  0  0  0  0  0  0
  1  2  1  0
  2  3  2  0
  2  4  1  0
  4  5  2  0
  5  6  1  0
  6  7  2  0
  7  8  1  0
  8  9  2  0
  9 10  1  0
 10 11  2  0
 11 12  1  0
 12 13  2  0
 13 14  1  0
  8 15  1  0
 15 16  1  0
 16 17  1  0
 17 18  1  0
 18 19  1  0
 19 20  2  0
 20 21  1  0
 21 22  2  0
 22 23  1  0
 23 24  1  0
 21 25  1  0
 25 26  1  0
 26 27  1  0
 18 28  1  0
 28 29  1  0
 13  4  1  0
 29 15  1  0
 12  7  1  0
 23 19  1  0
 27 25  1  0
M  END
>  <AAScore>  (1) 
-8.125974543440815

>  <RootName>  (1) 
./4ZLY/04_DeltaGEst/trajectory_04/rank_01/lead_0163

$$$$
