confid_8
     RDKit          3D

 30 34  0  0  0  0  0  0  0  0999 V2000
   24.5500   26.3900   36.2500 N   0  0  0  0  0  0  0  0  0  0  0  0
   25.6000   26.1300   35.4000 C   0  0  0  0  0  0  0  0  0  0  0  0
   25.4300   25.4300   34.4200 O   0  0  0  0  0  0  0  0  0  0  0  0
   26.9800   26.6300   35.7100 C   0  0  0  0  0  0  0  0  0  0  0  0
   27.3200   26.8200   36.9800 N   0  0  0  0  0  0  0  0  0  0  0  0
   28.4700   27.4000   37.3100 N   0  0  0  0  0  0  0  0  0  0  0  0
   29.4000   27.6300   36.3700 C   0  0  0  0  0  0  0  0  0  0  0  0
   30.6600   28.0500   36.8000 C   0  0  0  0  0  0  0  0  0  0  0  0
   31.5700   28.3600   35.7800 C   0  0  0  0  0  0  0  0  0  0  0  0
   31.3700   28.1000   34.4300 C   0  0  0  0  0  0  0  0  0  0  0  0
   30.1200   27.5900   34.0500 C   0  0  0  0  0  0  0  0  0  0  0  0
   29.1500   27.3400   35.0300 C   0  0  0  0  0  0  0  0  0  0  0  0
   27.8800   26.8900   34.6600 C   0  0  0  0  0  0  0  0  0  0  0  0
   27.4800   26.6100   33.3700 N   0  0  0  0  0  0  0  0  0  0  0  0
   23.7894   25.3422   36.8891 C   0  0  0  0  0  0  0  0  0  0  0  0
   22.7813   25.6430   37.6527 N   0  0  0  0  0  0  0  0  0  0  0  0
   21.9077   26.7101   37.2746 C   0  0  0  0  0  0  0  0  0  0  0  0
   20.9946   26.4148   36.3307 C   0  0  0  0  0  0  0  0  0  0  0  0
   20.7463   24.9643   36.0154 C   0  0  0  0  0  0  0  0  0  0  0  0
   21.7499   24.5976   35.0148 N   0  0  0  0  0  0  0  0  0  0  0  0
   21.8820   25.4551   33.8152 C   0  0  0  0  0  0  0  0  0  0  0  0
   20.9232   26.6874   33.8502 C   0  0  0  0  0  0  0  0  0  0  0  0
   20.8521   27.2906   35.1984 N   0  0  0  0  0  0  0  0  0  0  0  0
   20.5885   28.7214   35.3684 C   0  0  0  0  0  0  0  0  0  0  0  0
   22.8070   23.6677   35.3603 C   0  0  0  0  0  0  0  0  0  0  0  0
   23.7689   23.9928   36.2777 C   0  0  0  0  0  0  0  0  0  0  0  0
   24.8477   23.0177   36.6924 C   0  0  0  0  0  0  0  0  0  0  0  0
   25.1108   21.9439   35.6350 C   0  0  0  0  0  0  0  0  0  0  0  0
   23.7902   21.3326   35.1731 C   0  0  0  0  0  0  0  0  0  0  0  0
   22.9074   22.4078   34.5333 C   0  0  0  0  0  0  0  0  0  0  0  0
  1  2  1  0
  2  3  2  0
  2  4  1  0
  4  5  2  0
  5  6  1  0
  6  7  2  0
  7  8  1  0
  8  9  2  0
  9 10  1  0
 10 11  2  0
 11 12  1  0
 12 13  2  0
 13 14  1  0
  1 15  1  0
 15 16  2  0
 16 17  1  0
 17 18  2  0
 18 19  1  0
 19 20  1  0
 20 21  1  0
 21 22  1  0
 22 23  1  0
 23 24  1  0
 20 25  1  0
 25 26  2  0
 26 27  1  0
 27 28  1  0
 28 29  1  0
 29 30  1  0
 13  4  1  0
 26 15  1  0
 12  7  1  0
 23 18  1  0
 30 25  1  0
M  END
>  <AAScore>  (1) 
1199.9700518576565

>  <RootName>  (1) 
./4ZLY/04_DeltaGEst/trajectory_01/rank_00/lead_0390

$$$$
