confid_6
     RDKit          3D

 27 30  0  0  0  0  0  0  0  0999 V2000
   24.5700   26.8800   35.5900 N   0  0  0  0  0  0  0  0  0  0  0  0
   25.5000   26.4000   34.6900 C   0  0  0  0  0  0  0  0  0  0  0  0
   25.1700   25.5200   33.9100 O   0  0  0  0  0  0  0  0  0  0  0  0
   26.8400   27.0200   34.7400 C   0  0  0  0  0  0  0  0  0  0  0  0
   27.3800   27.2800   35.9400 N   0  0  0  0  0  0  0  0  0  0  0  0
   28.6200   27.7400   36.0300 N   0  0  0  0  0  0  0  0  0  0  0  0
   29.3800   28.0000   34.9600 C   0  0  0  0  0  0  0  0  0  0  0  0
   30.6700   28.5000   35.1300 C   0  0  0  0  0  0  0  0  0  0  0  0
   31.5400   28.6100   34.0300 C   0  0  0  0  0  0  0  0  0  0  0  0
   31.0900   28.2200   32.7700 C   0  0  0  0  0  0  0  0  0  0  0  0
   29.8000   27.7000   32.6000 C   0  0  0  0  0  0  0  0  0  0  0  0
   28.9600   27.5500   33.7100 C   0  0  0  0  0  0  0  0  0  0  0  0
   27.6600   27.0300   33.5900 C   0  0  0  0  0  0  0  0  0  0  0  0
   27.1600   26.7400   32.3400 N   0  0  0  0  0  0  0  0  0  0  0  0
   23.2134   26.4003   35.6481 C   0  0  0  0  0  0  0  0  0  0  0  0
   22.5460   26.1815   34.4885 N   0  0  0  0  0  0  0  0  0  0  0  0
   21.2584   25.7737   34.4550 C   0  0  0  0  0  0  0  0  0  0  0  0
   20.5395   25.5691   35.6389 C   0  0  0  0  0  0  0  0  0  0  0  0
   19.0875   25.1719   35.5108 C   0  0  0  0  0  0  0  0  0  0  0  0
   18.2276   26.1372   36.2695 C   0  0  0  0  0  0  0  0  0  0  0  0
   17.4827   26.9040   35.6779 O   0  0  0  0  0  0  0  0  0  0  0  0
   18.3203   26.1816   37.7600 C   0  0  0  0  0  0  0  0  0  0  0  0
   19.1565   25.1327   38.2034 O   0  0  0  0  0  0  0  0  0  0  0  0
   20.5113   25.5368   38.2475 C   0  0  0  0  0  0  0  0  0  0  0  0
   21.1982   25.7625   36.8923 C   0  0  0  0  0  0  0  0  0  0  0  0
   22.5649   26.1768   36.8855 C   0  0  0  0  0  0  0  0  0  0  0  0
   23.3261   26.4342   38.1731 C   0  0  0  0  0  0  0  0  0  0  0  0
  1  2  1  0
  2  3  2  0
  2  4  1  0
  4  5  2  0
  5  6  1  0
  6  7  2  0
  7  8  1  0
  8  9  2  0
  9 10  1  0
 10 11  2  0
 11 12  1  0
 12 13  2  0
 13 14  1  0
  1 15  1  0
 15 16  2  0
 16 17  1  0
 17 18  2  0
 18 19  1  0
 19 20  1  0
 20 21  2  0
 20 22  1  0
 22 23  1  0
 23 24  1  0
 24 25  1  0
 25 26  2  0
 26 27  1  0
 13  4  1  0
 26 15  1  0
 12  7  1  0
 25 18  1  0
M  END
>  <AAScore>  (1) 
13288.904005132765

>  <RootName>  (1) 
./4ZLY/04_DeltaGEst/trajectory_05/rank_00/lead_0061

$$$$
