confid_5
     RDKit          3D

 29 32  0  0  0  0  0  0  0  0999 V2000
   24.4800   26.1000   36.1300 N   0  0  0  0  0  0  0  0  0  0  0  0
   25.2500   26.2500   34.9900 C   0  0  0  0  0  0  0  0  0  0  0  0
   24.7400   25.7600   33.9900 O   0  0  0  0  0  0  0  0  0  0  0  0
   26.5900   26.8900   34.9600 C   0  0  0  0  0  0  0  0  0  0  0  0
   27.0600   27.2400   36.1600 N   0  0  0  0  0  0  0  0  0  0  0  0
   28.3000   27.7100   36.2400 N   0  0  0  0  0  0  0  0  0  0  0  0
   29.0500   27.9600   35.1500 C   0  0  0  0  0  0  0  0  0  0  0  0
   30.3400   28.4900   35.2600 C   0  0  0  0  0  0  0  0  0  0  0  0
   31.1100   28.8200   34.1400 C   0  0  0  0  0  0  0  0  0  0  0  0
   30.5200   28.6700   32.8800 C   0  0  0  0  0  0  0  0  0  0  0  0
   29.2900   28.0200   32.7700 C   0  0  0  0  0  0  0  0  0  0  0  0
   28.5200   27.7100   33.8900 C   0  0  0  0  0  0  0  0  0  0  0  0
   27.2700   27.0800   33.7600 C   0  0  0  0  0  0  0  0  0  0  0  0
   26.7500   26.8800   32.4900 N   0  0  0  0  0  0  0  0  0  0  0  0
   23.0355   26.1857   36.1521 C   0  0  0  0  0  0  0  0  0  0  0  0
   22.3667   26.4759   35.0024 N   0  0  0  0  0  0  0  0  0  0  0  0
   21.0242   26.6439   34.9544 C   0  0  0  0  0  0  0  0  0  0  0  0
   20.2619   26.5653   36.1201 C   0  0  0  0  0  0  0  0  0  0  0  0
   18.7762   26.8433   36.0415 C   0  0  0  0  0  0  0  0  0  0  0  0
   18.0625   26.4190   37.2640 N   0  0  0  0  0  0  0  0  0  0  0  0
   16.6520   26.8612   37.2062 C   0  0  0  0  0  0  0  0  0  0  0  0
   15.8067   26.0533   38.1519 C   0  0  0  0  0  0  0  0  0  0  0  0
   15.0256   26.7250   39.2433 C   0  0  0  0  0  0  0  0  0  0  0  0
   15.7587   24.8383   38.0303 O   0  0  0  0  0  0  0  0  0  0  0  0
   18.7354   26.9718   38.4530 C   0  0  0  0  0  0  0  0  0  0  0  0
   20.0937   26.2958   38.6263 C   0  0  0  0  0  0  0  0  0  0  0  0
   20.9089   26.3160   37.3492 C   0  0  0  0  0  0  0  0  0  0  0  0
   22.3043   26.0406   37.3600 C   0  0  0  0  0  0  0  0  0  0  0  0
   23.0122   25.6468   38.6380 C   0  0  0  0  0  0  0  0  0  0  0  0
  1  2  1  0
  2  3  2  0
  2  4  1  0
  4  5  2  0
  5  6  1  0
  6  7  2  0
  7  8  1  0
  8  9  2  0
  9 10  1  0
 10 11  2  0
 11 12  1  0
 12 13  2  0
 13 14  1  0
  1 15  1  0
 15 16  2  0
 16 17  1  0
 17 18  2  0
 18 19  1  0
 19 20  1  0
 20 21  1  0
 21 22  1  0
 22 23  1  0
 22 24  2  0
 20 25  1  0
 25 26  1  0
 26 27  1  0
 27 28  2  0
 28 29  1  0
 13  4  1  0
 28 15  1  0
 12  7  1  0
 27 18  1  0
M  END
>  <AAScore>  (1) 
505.89854911638224

>  <RootName>  (1) 
./4ZLY/04_DeltaGEst/trajectory_00/rank_01/lead_0127

$$$$
