confid_6
     RDKit          3D

 29 32  0  0  0  0  0  0  0  0999 V2000
   24.2000   26.2400   35.6900 N   0  0  0  0  0  0  0  0  0  0  0  0
   24.8500   26.2800   34.4800 C   0  0  0  0  0  0  0  0  0  0  0  0
   24.3100   25.7400   33.5400 O   0  0  0  0  0  0  0  0  0  0  0  0
   26.1800   26.9700   34.4700 C   0  0  0  0  0  0  0  0  0  0  0  0
   26.6500   27.6000   35.5500 N   0  0  0  0  0  0  0  0  0  0  0  0
   27.7900   28.2700   35.6200 N   0  0  0  0  0  0  0  0  0  0  0  0
   28.5400   28.3000   34.5100 C   0  0  0  0  0  0  0  0  0  0  0  0
   29.7700   28.9400   34.5600 C   0  0  0  0  0  0  0  0  0  0  0  0
   30.7000   28.8900   33.5000 C   0  0  0  0  0  0  0  0  0  0  0  0
   30.3700   28.1400   32.3700 C   0  0  0  0  0  0  0  0  0  0  0  0
   29.1200   27.5200   32.2800 C   0  0  0  0  0  0  0  0  0  0  0  0
   28.2100   27.6100   33.3300 C   0  0  0  0  0  0  0  0  0  0  0  0
   26.9700   26.9700   33.3100 C   0  0  0  0  0  0  0  0  0  0  0  0
   26.5300   26.2400   32.2200 N   0  0  0  0  0  0  0  0  0  0  0  0
   22.7684   26.2275   35.8536 C   0  0  0  0  0  0  0  0  0  0  0  0
   22.3196   25.6570   36.9480 N   0  0  0  0  0  0  0  0  0  0  0  0
   21.0243   25.4086   37.5314 C   0  0  0  0  0  0  0  0  0  0  0  0
   19.9475   24.9353   36.8778 C   0  0  0  0  0  0  0  0  0  0  0  0
   19.9189   24.9122   35.4015 C   0  0  0  0  0  0  0  0  0  0  0  0
   19.4745   26.2625   35.0872 N   0  0  0  0  0  0  0  0  0  0  0  0
   18.0943   26.5996   35.5219 C   0  0  0  0  0  0  0  0  0  0  0  0
   17.5589   25.6367   36.6309 C   0  0  0  0  0  0  0  0  0  0  0  0
   18.6455   25.0864   37.4788 N   0  0  0  0  0  0  0  0  0  0  0  0
   18.3689   24.5465   38.8234 C   0  0  0  0  0  0  0  0  0  0  0  0
   18.0152   25.6748   39.7993 C   0  0  0  0  0  0  0  0  0  0  0  0
   17.2625   23.4857   38.7747 C   0  0  0  0  0  0  0  0  0  0  0  0
   20.4995   27.2816   35.1033 C   0  0  0  0  0  0  0  0  0  0  0  0
   20.2063   28.4813   35.3620 O   0  0  0  0  0  0  0  0  0  0  0  0
   21.9275   26.9397   34.7839 C   0  0  0  0  0  0  0  0  0  0  0  0
  1  2  1  0
  2  3  2  0
  2  4  1  0
  4  5  2  0
  5  6  1  0
  6  7  2  0
  7  8  1  0
  8  9  2  0
  9 10  1  0
 10 11  2  0
 11 12  1  0
 12 13  2  0
 13 14  1  0
  1 15  1  0
 15 16  2  0
 16 17  1  0
 17 18  2  0
 18 19  1  0
 19 20  1  0
 20 21  1  0
 21 22  1  0
 22 23  1  0
 23 24  1  0
 24 25  1  0
 24 26  1  0
 20 27  1  0
 27 28  2  0
 27 29  1  0
 13  4  1  0
 29 15  1  0
 12  7  1  0
 23 18  1  0
M  END
>  <AAScore>  (1) 
1580.9793337190154

>  <RootName>  (1) 
./4ZLY/04_DeltaGEst/trajectory_04/rank_00/lead_0055

$$$$
