confid_0
     RDKit          3D

 28 31  0  0  0  0  0  0  0  0999 V2000
   24.5700   26.8800   35.5900 N   0  0  0  0  0  0  0  0  0  0  0  0
   25.5000   26.4000   34.6900 C   0  0  0  0  0  0  0  0  0  0  0  0
   25.1700   25.5200   33.9100 O   0  0  0  0  0  0  0  0  0  0  0  0
   26.8400   27.0200   34.7400 C   0  0  0  0  0  0  0  0  0  0  0  0
   27.3800   27.2800   35.9400 N   0  0  0  0  0  0  0  0  0  0  0  0
   28.6200   27.7400   36.0300 N   0  0  0  0  0  0  0  0  0  0  0  0
   29.3800   28.0000   34.9600 C   0  0  0  0  0  0  0  0  0  0  0  0
   30.6700   28.5000   35.1300 C   0  0  0  0  0  0  0  0  0  0  0  0
   31.5400   28.6100   34.0300 C   0  0  0  0  0  0  0  0  0  0  0  0
   31.0900   28.2200   32.7700 C   0  0  0  0  0  0  0  0  0  0  0  0
   29.8000   27.7000   32.6000 C   0  0  0  0  0  0  0  0  0  0  0  0
   28.9600   27.5500   33.7100 C   0  0  0  0  0  0  0  0  0  0  0  0
   27.6600   27.0300   33.5900 C   0  0  0  0  0  0  0  0  0  0  0  0
   27.1600   26.7400   32.3400 N   0  0  0  0  0  0  0  0  0  0  0  0
   23.3657   26.1908   35.9682 C   0  0  0  0  0  0  0  0  0  0  0  0
   22.2730   26.9196   36.3206 N   0  0  0  0  0  0  0  0  0  0  0  0
   21.1059   26.3418   36.7083 C   0  0  0  0  0  0  0  0  0  0  0  0
   20.9867   24.9448   36.7658 C   0  0  0  0  0  0  0  0  0  0  0  0
   19.6792   24.3228   37.2335 C   0  0  0  0  0  0  0  0  0  0  0  0
   19.2566   23.2325   36.3145 N   0  0  0  0  0  0  0  0  0  0  0  0
   18.0294   23.5708   35.5783 C   0  0  0  0  0  0  0  0  0  0  0  0
   19.1534   21.9038   36.9694 C   0  0  0  0  0  0  0  0  0  0  0  0
   19.7156   20.8094   36.0860 C   0  0  0  0  0  0  0  0  0  0  0  0
   20.8289   20.9084   35.4082 N   0  0  0  0  0  0  0  0  0  0  0  0
   21.6766   22.0645   35.3609 C   0  0  0  0  0  0  0  0  0  0  0  0
   22.0491   22.7010   36.4731 C   0  0  0  0  0  0  0  0  0  0  0  0
   22.1254   24.1657   36.4464 C   0  0  0  0  0  0  0  0  0  0  0  0
   23.3103   24.7902   36.0429 C   0  0  0  0  0  0  0  0  0  0  0  0
  1  2  1  0
  2  3  2  0
  2  4  1  0
  4  5  2  0
  5  6  1  0
  6  7  2  0
  7  8  1  0
  8  9  2  0
  9 10  1  0
 10 11  2  0
 11 12  1  0
 12 13  2  0
 13 14  1  0
  1 15  1  0
 15 16  2  0
 16 17  1  0
 17 18  2  0
 18 19  1  0
 19 20  1  0
 20 21  1  0
 20 22  1  0
 22 23  1  0
 23 24  2  0
 24 25  1  0
 25 26  2  0
 26 27  1  0
 27 28  2  0
 13  4  1  0
 28 15  1  0
 12  7  1  0
 27 18  1  0
M  END
>  <AAScore>  (1) 
2229.591815347123

>  <RootName>  (1) 
./4ZLY/04_DeltaGEst/trajectory_05/rank_00/lead_0427

$$$$
