confid_4
     RDKit          3D

 31 34  0  0  0  0  0  0  0  0999 V2000
   24.5500   26.3900   36.2500 N   0  0  0  0  0  0  0  0  0  0  0  0
   25.6000   26.1300   35.4000 C   0  0  0  0  0  0  0  0  0  0  0  0
   25.4300   25.4300   34.4200 O   0  0  0  0  0  0  0  0  0  0  0  0
   26.9800   26.6300   35.7100 C   0  0  0  0  0  0  0  0  0  0  0  0
   27.3200   26.8200   36.9800 N   0  0  0  0  0  0  0  0  0  0  0  0
   28.4700   27.4000   37.3100 N   0  0  0  0  0  0  0  0  0  0  0  0
   29.4000   27.6300   36.3700 C   0  0  0  0  0  0  0  0  0  0  0  0
   30.6600   28.0500   36.8000 C   0  0  0  0  0  0  0  0  0  0  0  0
   31.5700   28.3600   35.7800 C   0  0  0  0  0  0  0  0  0  0  0  0
   31.3700   28.1000   34.4300 C   0  0  0  0  0  0  0  0  0  0  0  0
   30.1200   27.5900   34.0500 C   0  0  0  0  0  0  0  0  0  0  0  0
   29.1500   27.3400   35.0300 C   0  0  0  0  0  0  0  0  0  0  0  0
   27.8800   26.8900   34.6600 C   0  0  0  0  0  0  0  0  0  0  0  0
   27.4800   26.6100   33.3700 N   0  0  0  0  0  0  0  0  0  0  0  0
   23.1875   25.8561   36.0977 C   0  0  0  0  0  0  0  0  0  0  0  0
   22.4981   26.4483   34.8532 C   0  0  0  0  0  0  0  0  0  0  0  0
   21.1508   25.7627   34.6030 C   0  0  0  0  0  0  0  0  0  0  0  0
   21.2897   24.2986   34.5367 N   0  0  0  0  0  0  0  0  0  0  0  0
   20.1690   23.5203   34.0665 C   0  0  0  0  0  0  0  0  0  0  0  0
   19.0041   23.9990   34.1552 O   0  0  0  0  0  0  0  0  0  0  0  0
   20.3559   22.1293   33.5126 C   0  0  0  0  0  0  0  0  0  0  0  0
   19.2818   21.7713   32.5223 C   0  0  0  0  0  0  0  0  0  0  0  0
   18.0831   21.1665   32.9363 C   0  0  0  0  0  0  0  0  0  0  0  0
   17.1028   20.8719   31.9867 C   0  0  0  0  0  0  0  0  0  0  0  0
   17.3159   21.1875   30.6439 C   0  0  0  0  0  0  0  0  0  0  0  0
   18.5130   21.8084   30.2662 C   0  0  0  0  0  0  0  0  0  0  0  0
   18.7735   22.1411   28.8318 C   0  0  0  0  0  0  0  0  0  0  0  0
   19.4586   22.0794   31.2073 N   0  0  0  0  0  0  0  0  0  0  0  0
   17.8654   20.8682   34.2425 F   0  0  0  0  0  0  0  0  0  0  0  0
   22.5740   23.6653   34.8781 C   0  0  0  0  0  0  0  0  0  0  0  0
   23.1720   24.3035   36.1392 C   0  0  0  0  0  0  0  0  0  0  0  0
  1  2  1  0
  2  3  2  0
  2  4  1  0
  4  5  2  0
  5  6  1  0
  6  7  2  0
  7  8  1  0
  8  9  2  0
  9 10  1  0
 10 11  2  0
 11 12  1  0
 12 13  2  0
 13 14  1  0
  1 15  1  0
 15 16  1  0
 16 17  1  0
 17 18  1  0
 18 19  1  0
 19 20  2  0
 19 21  1  0
 21 22  1  0
 22 23  2  0
 23 24  1  0
 24 25  2  0
 25 26  1  0
 26 27  1  0
 26 28  2  0
 23 29  1  0
 18 30  1  0
 30 31  1  0
 13  4  1  0
 31 15  1  0
 12  7  1  0
 28 22  1  0
M  END
>  <AAScore>  (1) 
418.3521226380311

>  <RootName>  (1) 
./4ZLY/04_DeltaGEst/trajectory_01/rank_00/lead_0380

$$$$
