confid_19
     RDKit          3D

 27 30  0  0  0  0  0  0  0  0999 V2000
   25.3300   26.2600   34.7600 N   0  0  0  0  0  0  0  0  0  0  0  0
   26.1200   25.9200   33.6900 C   0  0  0  0  0  0  0  0  0  0  0  0
   25.6300   25.1100   32.9400 O   0  0  0  0  0  0  0  0  0  0  0  0
   27.5200   26.3800   33.4600 C   0  0  0  0  0  0  0  0  0  0  0  0
   28.1600   26.6300   34.6100 N   0  0  0  0  0  0  0  0  0  0  0  0
   29.4800   26.8500   34.5700 N   0  0  0  0  0  0  0  0  0  0  0  0
   30.1900   26.7800   33.4400 C   0  0  0  0  0  0  0  0  0  0  0  0
   31.5600   27.0500   33.5000 C   0  0  0  0  0  0  0  0  0  0  0  0
   32.2700   27.2400   32.3100 C   0  0  0  0  0  0  0  0  0  0  0  0
   31.6100   27.2500   31.0800 C   0  0  0  0  0  0  0  0  0  0  0  0
   30.2700   26.8700   31.0600 C   0  0  0  0  0  0  0  0  0  0  0  0
   29.5100   26.6900   32.2300 C   0  0  0  0  0  0  0  0  0  0  0  0
   28.1400   26.4100   32.2000 C   0  0  0  0  0  0  0  0  0  0  0  0
   27.4300   26.1300   31.0500 N   0  0  0  0  0  0  0  0  0  0  0  0
   26.5249   27.1434   30.4949 C   0  0  0  0  0  0  0  0  0  0  0  0
   26.2015   26.8347   29.0323 C   0  0  0  0  0  0  0  0  0  0  0  0
   27.4256   26.3486   28.3719 N   0  0  0  0  0  0  0  0  0  0  0  0
   27.2772   26.3676   26.9029 C   0  0  0  0  0  0  0  0  0  0  0  0
   28.6208   26.2095   26.2386 C   0  0  0  0  0  0  0  0  0  0  0  0
   29.5053   27.2423   26.3263 N   0  0  0  0  0  0  0  0  0  0  0  0
   30.7507   27.1784   25.7868 C   0  0  0  0  0  0  0  0  0  0  0  0
   31.1641   26.0256   25.1208 C   0  0  0  0  0  0  0  0  0  0  0  0
   30.2876   24.9457   25.0183 C   0  0  0  0  0  0  0  0  0  0  0  0
   29.0081   25.0230   25.5777 C   0  0  0  0  0  0  0  0  0  0  0  0
   27.9455   23.6268   25.4344 Cl  0  0  0  0  0  0  0  0  0  0  0  0
   27.7824   24.9940   28.8604 C   0  0  0  0  0  0  0  0  0  0  0  0
   27.5894   24.8308   30.3845 C   0  0  0  0  0  0  0  0  0  0  0  0
  1  2  1  0
  2  3  2  0
  2  4  1  0
  4  5  2  0
  5  6  1  0
  6  7  2  0
  7  8  1  0
  8  9  2  0
  9 10  1  0
 10 11  2  0
 11 12  1  0
 12 13  2  0
 13 14  1  0
 14 15  1  0
 15 16  1  0
 16 17  1  0
 17 18  1  0
 18 19  1  0
 19 20  2  0
 20 21  1  0
 21 22  2  0
 22 23  1  0
 23 24  2  0
 24 25  1  0
 17 26  1  0
 26 27  1  0
 13  4  1  0
 27 14  1  0
 12  7  1  0
 24 19  1  0
M  END
>  <AAScore>  (1) 
-1.1094034135642716

>  <RootName>  (1) 
./4ZLY/04_DeltaGEst/trajectory_03/rank_01/lead_0115

$$$$
