confid_3
     RDKit          3D

 28 32  0  0  0  0  0  0  0  0999 V2000
   25.3300   26.2600   34.7600 N   0  0  0  0  0  0  0  0  0  0  0  0
   26.1200   25.9200   33.6900 C   0  0  0  0  0  0  0  0  0  0  0  0
   25.6300   25.1100   32.9400 O   0  0  0  0  0  0  0  0  0  0  0  0
   27.5200   26.3800   33.4600 C   0  0  0  0  0  0  0  0  0  0  0  0
   28.1600   26.6300   34.6100 N   0  0  0  0  0  0  0  0  0  0  0  0
   29.4800   26.8500   34.5700 N   0  0  0  0  0  0  0  0  0  0  0  0
   30.1900   26.7800   33.4400 C   0  0  0  0  0  0  0  0  0  0  0  0
   31.5600   27.0500   33.5000 C   0  0  0  0  0  0  0  0  0  0  0  0
   32.2700   27.2400   32.3100 C   0  0  0  0  0  0  0  0  0  0  0  0
   31.6100   27.2500   31.0800 C   0  0  0  0  0  0  0  0  0  0  0  0
   30.2700   26.8700   31.0600 C   0  0  0  0  0  0  0  0  0  0  0  0
   29.5100   26.6900   32.2300 C   0  0  0  0  0  0  0  0  0  0  0  0
   28.1400   26.4100   32.2000 C   0  0  0  0  0  0  0  0  0  0  0  0
   27.4300   26.1300   31.0500 N   0  0  0  0  0  0  0  0  0  0  0  0
   26.3180   26.7353   30.2846 C   0  0  0  0  0  0  0  0  0  0  0  0
   26.3018   25.6938   29.2189 C   0  0  0  0  0  0  0  0  0  0  0  0
   25.1128   24.9021   29.1663 O   0  0  0  0  0  0  0  0  0  0  0  0
   24.6793   24.8453   27.8442 C   0  0  0  0  0  0  0  0  0  0  0  0
   23.5581   24.1727   27.3645 C   0  0  0  0  0  0  0  0  0  0  0  0
   23.2754   24.2339   25.9821 C   0  0  0  0  0  0  0  0  0  0  0  0
   22.0908   23.5026   25.4216 C   0  0  0  0  0  0  0  0  0  0  0  0
   24.1388   24.9545   25.1177 C   0  0  0  0  0  0  0  0  0  0  0  0
   23.8894   25.0041   23.7846 F   0  0  0  0  0  0  0  0  0  0  0  0
   25.2636   25.6243   25.6299 C   0  0  0  0  0  0  0  0  0  0  0  0
   25.5034   25.5505   26.9991 C   0  0  0  0  0  0  0  0  0  0  0  0
   26.5628   26.1198   27.8060 C   0  0  0  0  0  0  0  0  0  0  0  0
   27.5166   26.8323   27.3941 O   0  0  0  0  0  0  0  0  0  0  0  0
   27.4244   25.0937   29.9937 C   0  0  0  0  0  0  0  0  0  0  0  0
  1  2  1  0
  2  3  2  0
  2  4  1  0
  4  5  2  0
  5  6  1  0
  6  7  2  0
  7  8  1  0
  8  9  2  0
  9 10  1  0
 10 11  2  0
 11 12  1  0
 12 13  2  0
 13 14  1  0
 14 15  1  0
 15 16  1  0
 16 17  1  0
 17 18  1  0
 18 19  2  0
 19 20  1  0
 20 21  1  0
 20 22  2  0
 22 23  1  0
 22 24  1  0
 24 25  2  0
 25 26  1  0
 26 27  2  0
 16 28  1  0
 13  4  1  0
 28 14  1  0
 12  7  1  0
 26 16  1  0
 25 18  1  0
M  END
>  <AAScore>  (1) 
176.16523558407636

>  <RootName>  (1) 
./4ZLY/04_DeltaGEst/trajectory_03/rank_01/lead_0093

$$$$
