confid_1
     RDKit          3D

 31 36  0  0  0  0  0  0  0  0999 V2000
   24.4800   26.1000   36.1300 N   0  0  0  0  0  0  0  0  0  0  0  0
   25.2500   26.2500   34.9900 C   0  0  0  0  0  0  0  0  0  0  0  0
   24.7400   25.7600   33.9900 O   0  0  0  0  0  0  0  0  0  0  0  0
   26.5900   26.8900   34.9600 C   0  0  0  0  0  0  0  0  0  0  0  0
   27.0600   27.2400   36.1600 N   0  0  0  0  0  0  0  0  0  0  0  0
   28.3000   27.7100   36.2400 N   0  0  0  0  0  0  0  0  0  0  0  0
   29.0500   27.9600   35.1500 C   0  0  0  0  0  0  0  0  0  0  0  0
   30.3400   28.4900   35.2600 C   0  0  0  0  0  0  0  0  0  0  0  0
   31.1100   28.8200   34.1400 C   0  0  0  0  0  0  0  0  0  0  0  0
   30.5200   28.6700   32.8800 C   0  0  0  0  0  0  0  0  0  0  0  0
   29.2900   28.0200   32.7700 C   0  0  0  0  0  0  0  0  0  0  0  0
   28.5200   27.7100   33.8900 C   0  0  0  0  0  0  0  0  0  0  0  0
   27.2700   27.0800   33.7600 C   0  0  0  0  0  0  0  0  0  0  0  0
   26.7500   26.8800   32.4900 N   0  0  0  0  0  0  0  0  0  0  0  0
   23.4299   25.1223   36.2882 C   0  0  0  0  0  0  0  0  0  0  0  0
   23.5423   23.9918   35.6409 N   0  0  0  0  0  0  0  0  0  0  0  0
   22.7164   22.8293   35.4565 C   0  0  0  0  0  0  0  0  0  0  0  0
   21.3873   22.8502   35.4662 C   0  0  0  0  0  0  0  0  0  0  0  0
   20.3037   22.1691   34.6790 C   0  0  0  0  0  0  0  0  0  0  0  0
   19.2882   23.0272   35.0909 O   0  0  0  0  0  0  0  0  0  0  0  0
   20.2034   23.6308   35.9445 C   0  0  2  0  0  0  0  0  0  0  0  0
   20.3687   25.1312   35.7274 C   0  0  0  0  0  0  0  0  0  0  0  0
   21.0642   25.6550   36.9456 C   0  0  0  0  0  0  0  0  0  0  0  0
   22.3458   25.4324   37.2534 C   0  0  0  0  0  0  0  0  0  0  0  0
   22.6198   25.8440   38.6682 C   0  0  0  0  0  0  0  0  0  0  0  0
   21.3266   26.3077   39.1514 N   0  0  0  0  0  0  0  0  0  0  0  0
   20.3094   26.1510   38.1356 C   0  0  1  0  0  0  0  0  0  0  0  0
   21.1459   27.5622   39.7806 C   0  0  0  0  0  0  0  0  0  0  0  0
   21.8746   27.9638   40.7257 O   0  0  0  0  0  0  0  0  0  0  0  0
   20.0483   28.3573   39.1891 C   0  0  0  0  0  0  0  0  0  0  0  0
   19.6736   27.5440   37.9422 C   0  0  0  0  0  0  0  0  0  0  0  0
  1  2  1  0
  2  3  2  0
  2  4  1  0
  4  5  2  0
  5  6  1  0
  6  7  2  0
  7  8  1  0
  8  9  2  0
  9 10  1  0
 10 11  2  0
 11 12  1  0
 12 13  2  0
 13 14  1  0
  1 15  1  0
 15 16  2  0
 16 17  1  0
 17 18  2  0
 18 19  1  0
 19 20  1  0
 20 21  1  0
 21 22  1  6
 22 23  1  0
 23 24  2  0
 24 25  1  0
 25 26  1  0
 26 27  1  0
 26 28  1  0
 28 29  2  0
 28 30  1  0
 30 31  1  0
 13  4  1  0
 24 15  1  0
 27 31  1  6
 12  7  1  0
 21 18  1  0
 27 23  1  0
M  END
>  <AAScore>  (1) 
8513.331424777705

>  <RootName>  (1) 
./4ZLY/04_DeltaGEst/trajectory_00/rank_01/lead_0452

$$$$
