confid_19
     RDKit          3D

 30 33  0  0  0  0  0  0  0  0999 V2000
   24.6900   26.1200   35.5300 N   0  0  0  0  0  0  0  0  0  0  0  0
   25.6600   25.6700   34.6600 C   0  0  0  0  0  0  0  0  0  0  0  0
   25.2400   25.0100   33.7200 O   0  0  0  0  0  0  0  0  0  0  0  0
   27.0300   26.2200   34.8800 C   0  0  0  0  0  0  0  0  0  0  0  0
   27.3500   26.7300   36.0700 N   0  0  0  0  0  0  0  0  0  0  0  0
   28.5700   27.1800   36.3300 N   0  0  0  0  0  0  0  0  0  0  0  0
   29.5300   27.1100   35.3900 C   0  0  0  0  0  0  0  0  0  0  0  0
   30.8300   27.5700   35.6500 C   0  0  0  0  0  0  0  0  0  0  0  0
   31.8500   27.5400   34.6900 C   0  0  0  0  0  0  0  0  0  0  0  0
   31.5100   27.1200   33.4000 C   0  0  0  0  0  0  0  0  0  0  0  0
   30.2200   26.6300   33.1100 C   0  0  0  0  0  0  0  0  0  0  0  0
   29.2400   26.6600   34.1000 C   0  0  0  0  0  0  0  0  0  0  0  0
   27.9300   26.2600   33.8100 C   0  0  0  0  0  0  0  0  0  0  0  0
   27.5200   25.7100   32.6100 N   0  0  0  0  0  0  0  0  0  0  0  0
   31.1450   28.0722   36.9580 N   0  0  0  0  0  0  0  0  0  0  0  0
   32.0388   27.2990   37.8304 C   0  0  0  0  0  0  0  0  0  0  0  0
   32.2550   28.0083   39.1702 C   0  0  0  0  0  0  0  0  0  0  0  0
   30.9665   28.4922   39.6909 N   0  0  0  0  0  0  0  0  0  0  0  0
   30.0832   29.2824   38.8172 C   0  0  0  0  0  0  0  0  0  0  0  0
   30.6285   29.3772   37.3865 C   0  0  0  0  0  0  0  0  0  0  0  0
   30.5691   28.2752   41.0607 C   0  0  0  0  0  0  0  0  0  0  0  0
   29.8065   29.1100   41.6218 O   0  0  0  0  0  0  0  0  0  0  0  0
   31.0672   27.0846   41.8426 C   0  0  0  0  0  0  0  0  0  0  0  0
   30.1041   26.6754   42.9649 C   0  0  0  0  0  0  0  0  0  0  0  0
   30.6123   25.4498   43.6762 C   0  0  0  0  0  0  0  0  0  0  0  0
   31.4714   25.5761   44.7809 C   0  0  0  0  0  0  0  0  0  0  0  0
   31.9698   24.4361   45.4192 C   0  0  0  0  0  0  0  0  0  0  0  0
   31.6242   23.1646   44.9531 C   0  0  0  0  0  0  0  0  0  0  0  0
   30.7816   23.0308   43.8460 C   0  0  0  0  0  0  0  0  0  0  0  0
   30.2803   24.1681   43.2052 C   0  0  0  0  0  0  0  0  0  0  0  0
  1  2  1  0
  2  3  2  0
  2  4  1  0
  4  5  2  0
  5  6  1  0
  6  7  2  0
  7  8  1  0
  8  9  2  0
  9 10  1  0
 10 11  2  0
 11 12  1  0
 12 13  2  0
 13 14  1  0
  8 15  1  0
 15 16  1  0
 16 17  1  0
 17 18  1  0
 18 19  1  0
 19 20  1  0
 18 21  1  0
 21 22  2  0
 21 23  1  0
 23 24  1  0
 24 25  1  0
 25 26  2  0
 26 27  1  0
 27 28  2  0
 28 29  1  0
 29 30  2  0
 13  4  1  0
 20 15  1  0
 30 25  1  0
 12  7  1  0
M  END
>  <AAScore>  (1) 
180.2342544057749

>  <RootName>  (1) 
./4ZLY/04_DeltaGEst/trajectory_02/rank_01/lead_0354

$$$$
