confid_2
     RDKit          3D

 29 32  0  0  0  0  0  0  0  0999 V2000
   24.5700   26.8800   35.5900 N   0  0  0  0  0  0  0  0  0  0  0  0
   25.5000   26.4000   34.6900 C   0  0  0  0  0  0  0  0  0  0  0  0
   25.1700   25.5200   33.9100 O   0  0  0  0  0  0  0  0  0  0  0  0
   26.8400   27.0200   34.7400 C   0  0  0  0  0  0  0  0  0  0  0  0
   27.3800   27.2800   35.9400 N   0  0  0  0  0  0  0  0  0  0  0  0
   28.6200   27.7400   36.0300 N   0  0  0  0  0  0  0  0  0  0  0  0
   29.3800   28.0000   34.9600 C   0  0  0  0  0  0  0  0  0  0  0  0
   30.6700   28.5000   35.1300 C   0  0  0  0  0  0  0  0  0  0  0  0
   31.5400   28.6100   34.0300 C   0  0  0  0  0  0  0  0  0  0  0  0
   31.0900   28.2200   32.7700 C   0  0  0  0  0  0  0  0  0  0  0  0
   29.8000   27.7000   32.6000 C   0  0  0  0  0  0  0  0  0  0  0  0
   28.9600   27.5500   33.7100 C   0  0  0  0  0  0  0  0  0  0  0  0
   27.6600   27.0300   33.5900 C   0  0  0  0  0  0  0  0  0  0  0  0
   27.1600   26.7400   32.3400 N   0  0  0  0  0  0  0  0  0  0  0  0
   23.3676   26.1815   35.9491 C   0  0  0  0  0  0  0  0  0  0  0  0
   22.2793   26.8629   36.1576 N   0  0  0  0  0  0  0  0  0  0  0  0
   21.0524   26.2488   36.5799 C   0  0  0  0  0  0  0  0  0  0  0  0
   20.9059   24.9098   36.5719 C   0  0  0  0  0  0  0  0  0  0  0  0
   19.7170   24.3042   37.3044 C   0  0  0  0  0  0  0  0  0  0  0  0
   18.8099   23.6008   36.3749 N   0  0  0  0  0  0  0  0  0  0  0  0
   17.9754   22.6328   37.1048 C   0  0  0  0  0  0  0  0  0  0  0  0
   17.9736   24.5412   35.5899 C   0  0  0  0  0  0  0  0  0  0  0  0
   18.3036   24.4083   34.1054 C   0  0  0  0  0  0  0  0  0  0  0  0
   19.6467   24.7831   33.8760 O   0  0  0  0  0  0  0  0  0  0  0  0
   20.4970   23.6534   33.8062 C   0  0  0  0  0  0  0  0  0  0  0  0
   21.8793   24.0257   34.3544 C   0  0  0  0  0  0  0  0  0  0  0  0
   22.0106   24.0543   35.9169 C   0  0  2  0  0  0  0  0  0  0  0  0
   22.0280   22.6056   36.4636 C   0  0  0  0  0  0  0  0  0  0  0  0
   23.3811   24.6999   36.2660 C   0  0  0  0  0  0  0  0  0  0  0  0
  1  2  1  0
  2  3  2  0
  2  4  1  0
  4  5  2  0
  5  6  1  0
  6  7  2  0
  7  8  1  0
  8  9  2  0
  9 10  1  0
 10 11  2  0
 11 12  1  0
 12 13  2  0
 13 14  1  0
  1 15  1  0
 15 16  2  0
 16 17  1  0
 17 18  2  0
 18 19  1  0
 19 20  1  0
 20 21  1  0
 20 22  1  0
 22 23  1  0
 23 24  1  0
 24 25  1  0
 25 26  1  0
 26 27  1  0
 27 28  1  1
 27 29  1  0
 13  4  1  0
 29 15  1  0
 12  7  1  0
 27 18  1  0
M  END
>  <AAScore>  (1) 
6381.83042546239

>  <RootName>  (1) 
./4ZLY/04_DeltaGEst/trajectory_05/rank_00/lead_0128

$$$$
