confid_0
     RDKit          3D

 27 30  0  0  0  0  0  0  0  0999 V2000
   24.2000   26.2400   35.6900 N   0  0  0  0  0  0  0  0  0  0  0  0
   24.8500   26.2800   34.4800 C   0  0  0  0  0  0  0  0  0  0  0  0
   24.3100   25.7400   33.5400 O   0  0  0  0  0  0  0  0  0  0  0  0
   26.1800   26.9700   34.4700 C   0  0  0  0  0  0  0  0  0  0  0  0
   26.6500   27.6000   35.5500 N   0  0  0  0  0  0  0  0  0  0  0  0
   27.7900   28.2700   35.6200 N   0  0  0  0  0  0  0  0  0  0  0  0
   28.5400   28.3000   34.5100 C   0  0  0  0  0  0  0  0  0  0  0  0
   29.7700   28.9400   34.5600 C   0  0  0  0  0  0  0  0  0  0  0  0
   30.7000   28.8900   33.5000 C   0  0  0  0  0  0  0  0  0  0  0  0
   30.3700   28.1400   32.3700 C   0  0  0  0  0  0  0  0  0  0  0  0
   29.1200   27.5200   32.2800 C   0  0  0  0  0  0  0  0  0  0  0  0
   28.2100   27.6100   33.3300 C   0  0  0  0  0  0  0  0  0  0  0  0
   26.9700   26.9700   33.3100 C   0  0  0  0  0  0  0  0  0  0  0  0
   26.5300   26.2400   32.2200 N   0  0  0  0  0  0  0  0  0  0  0  0
   30.1374   29.6746   35.7398 N   0  0  0  0  0  0  0  0  0  0  0  0
   31.1160   29.1002   36.6730 C   0  0  0  0  0  0  0  0  0  0  0  0
   32.0647   30.1572   37.2640 C   0  0  0  0  0  0  0  0  0  0  0  0
   32.7289   31.0330   36.1908 C   0  0  0  0  0  0  0  0  0  0  0  0
   31.8192   32.1174   35.6580 C   0  0  0  0  0  0  0  0  0  0  0  0
   32.2429   33.2650   35.0898 N   0  0  0  0  0  0  0  0  0  0  0  0
   33.6250   33.7034   34.8909 C   0  0  0  0  0  0  0  0  0  0  0  0
   34.2321   32.9046   33.9397 F   0  0  0  0  0  0  0  0  0  0  0  0
   33.6634   35.0211   34.4684 F   0  0  0  0  0  0  0  0  0  0  0  0
   31.1299   33.8822   34.6401 C   0  0  0  0  0  0  0  0  0  0  0  0
   30.0053   33.1815   34.8939 N   0  0  0  0  0  0  0  0  0  0  0  0
   30.4408   32.0681   35.5169 C   0  0  0  0  0  0  0  0  0  0  0  0
   29.5270   30.9819   35.9923 C   0  0  0  0  0  0  0  0  0  0  0  0
  1  2  1  0
  2  3  2  0
  2  4  1  0
  4  5  2  0
  5  6  1  0
  6  7  2  0
  7  8  1  0
  8  9  2  0
  9 10  1  0
 10 11  2  0
 11 12  1  0
 12 13  2  0
 13 14  1  0
  8 15  1  0
 15 16  1  0
 16 17  1  0
 17 18  1  0
 18 19  1  0
 19 20  1  0
 20 21  1  0
 21 22  1  0
 21 23  1  0
 20 24  1  0
 24 25  2  0
 25 26  1  0
 26 27  1  0
 13  4  1  0
 27 15  1  0
 12  7  1  0
 26 19  2  0
M  END
>  <AAScore>  (1) 
-6.113514474304938

>  <RootName>  (1) 
./4ZLY/04_DeltaGEst/trajectory_04/rank_01/lead_0478

$$$$
