confid_3
     RDKit          3D

 28 31  0  0  0  0  0  0  0  0999 V2000
   24.4800   26.1000   36.1300 N   0  0  0  0  0  0  0  0  0  0  0  0
   25.2500   26.2500   34.9900 C   0  0  0  0  0  0  0  0  0  0  0  0
   24.7400   25.7600   33.9900 O   0  0  0  0  0  0  0  0  0  0  0  0
   26.5900   26.8900   34.9600 C   0  0  0  0  0  0  0  0  0  0  0  0
   27.0600   27.2400   36.1600 N   0  0  0  0  0  0  0  0  0  0  0  0
   28.3000   27.7100   36.2400 N   0  0  0  0  0  0  0  0  0  0  0  0
   29.0500   27.9600   35.1500 C   0  0  0  0  0  0  0  0  0  0  0  0
   30.3400   28.4900   35.2600 C   0  0  0  0  0  0  0  0  0  0  0  0
   31.1100   28.8200   34.1400 C   0  0  0  0  0  0  0  0  0  0  0  0
   30.5200   28.6700   32.8800 C   0  0  0  0  0  0  0  0  0  0  0  0
   29.2900   28.0200   32.7700 C   0  0  0  0  0  0  0  0  0  0  0  0
   28.5200   27.7100   33.8900 C   0  0  0  0  0  0  0  0  0  0  0  0
   27.2700   27.0800   33.7600 C   0  0  0  0  0  0  0  0  0  0  0  0
   26.7500   26.8800   32.4900 N   0  0  0  0  0  0  0  0  0  0  0  0
   23.4077   25.1452   36.2796 C   0  0  0  0  0  0  0  0  0  0  0  0
   23.4306   23.9890   35.5641 N   0  0  0  0  0  0  0  0  0  0  0  0
   22.4713   23.0294   35.6576 C   0  0  0  0  0  0  0  0  0  0  0  0
   22.6337   21.8089   34.7836 C   0  0  0  0  0  0  0  0  0  0  0  0
   21.8533   21.8964   33.5271 N   0  0  0  0  0  0  0  0  0  0  0  0
   21.9460   20.6383   32.7703 C   0  0  0  0  0  0  0  0  0  0  0  0
   20.4495   22.3579   33.6654 C   0  0  0  0  0  0  0  0  0  0  0  0
   19.5697   21.4866   34.5853 C   0  0  0  0  0  0  0  0  0  0  0  0
   20.1920   21.1787   35.8179 O   0  0  0  0  0  0  0  0  0  0  0  0
   20.1909   22.2825   36.7022 C   0  0  0  0  0  0  0  0  0  0  0  0
   21.3652   23.2354   36.5258 C   0  0  0  0  0  0  0  0  0  0  0  0
   21.3387   24.4121   37.2893 C   0  0  0  0  0  0  0  0  0  0  0  0
   22.3475   25.3770   37.1767 C   0  0  0  0  0  0  0  0  0  0  0  0
   22.2698   26.6369   37.9955 C   0  0  0  0  0  0  0  0  0  0  0  0
  1  2  1  0
  2  3  2  0
  2  4  1  0
  4  5  2  0
  5  6  1  0
  6  7  2  0
  7  8  1  0
  8  9  2  0
  9 10  1  0
 10 11  2  0
 11 12  1  0
 12 13  2  0
 13 14  1  0
  1 15  1  0
 15 16  2  0
 16 17  1  0
 17 18  1  0
 18 19  1  0
 19 20  1  0
 19 21  1  0
 21 22  1  0
 22 23  1  0
 23 24  1  0
 24 25  1  0
 25 26  1  0
 26 27  2  0
 27 28  1  0
 13  4  1  0
 27 15  1  0
 12  7  1  0
 25 17  2  0
M  END
>  <AAScore>  (1) 
397.5888863992554

>  <RootName>  (1) 
./4ZLY/04_DeltaGEst/trajectory_00/rank_01/lead_0454

$$$$
