confid_2
     RDKit          3D

 28 31  0  0  0  0  0  0  0  0999 V2000
   24.6900   26.1200   35.5300 N   0  0  0  0  0  0  0  0  0  0  0  0
   25.6600   25.6700   34.6600 C   0  0  0  0  0  0  0  0  0  0  0  0
   25.2400   25.0100   33.7200 O   0  0  0  0  0  0  0  0  0  0  0  0
   27.0300   26.2200   34.8800 C   0  0  0  0  0  0  0  0  0  0  0  0
   27.3500   26.7300   36.0700 N   0  0  0  0  0  0  0  0  0  0  0  0
   28.5700   27.1800   36.3300 N   0  0  0  0  0  0  0  0  0  0  0  0
   29.5300   27.1100   35.3900 C   0  0  0  0  0  0  0  0  0  0  0  0
   30.8300   27.5700   35.6500 C   0  0  0  0  0  0  0  0  0  0  0  0
   31.8500   27.5400   34.6900 C   0  0  0  0  0  0  0  0  0  0  0  0
   31.5100   27.1200   33.4000 C   0  0  0  0  0  0  0  0  0  0  0  0
   30.2200   26.6300   33.1100 C   0  0  0  0  0  0  0  0  0  0  0  0
   29.2400   26.6600   34.1000 C   0  0  0  0  0  0  0  0  0  0  0  0
   27.9300   26.2600   33.8100 C   0  0  0  0  0  0  0  0  0  0  0  0
   27.5200   25.7100   32.6100 N   0  0  0  0  0  0  0  0  0  0  0  0
   23.3215   26.3911   35.1709 C   0  0  0  0  0  0  0  0  0  0  0  0
   22.9784   26.4609   33.9181 N   0  0  0  0  0  0  0  0  0  0  0  0
   21.6880   26.7106   33.3419 C   0  0  0  0  0  0  0  0  0  0  0  0
   20.5434   26.1447   33.7399 C   0  0  0  0  0  0  0  0  0  0  0  0
   19.1875   26.0233   33.1053 C   0  0  0  0  0  0  0  0  0  0  0  0
   18.6583   25.1758   34.0674 O   0  0  0  0  0  0  0  0  0  0  0  0
   19.8583   25.2646   34.7715 C   0  0  1  0  0  0  0  0  0  0  0  0
   20.4701   24.0039   34.8645 O   0  0  0  0  0  0  0  0  0  0  0  0
   19.6006   25.9529   36.1408 C   0  0  0  0  0  0  0  0  0  0  0  0
   20.4789   25.4870   37.3134 C   0  0  0  0  0  0  0  0  0  0  0  0
   21.9860   25.5189   37.0415 C   0  0  0  0  0  0  0  0  0  0  0  0
   22.3806   26.6644   36.2153 N   0  0  0  0  0  0  0  0  0  0  0  0
   22.3537   28.0129   36.8019 C   0  0  0  0  0  0  0  0  0  0  0  0
   22.0012   29.0768   35.7641 C   0  0  0  0  0  0  0  0  0  0  0  0
  1  2  1  0
  2  3  2  0
  2  4  1  0
  4  5  2  0
  5  6  1  0
  6  7  2  0
  7  8  1  0
  8  9  2  0
  9 10  1  0
 10 11  2  0
 11 12  1  0
 12 13  2  0
 13 14  1  0
  1 15  1  0
 15 16  2  0
 16 17  1  0
 17 18  2  0
 18 19  1  0
 19 20  1  0
 20 21  1  0
 21 22  1  1
 21 23  1  0
 23 24  1  0
 24 25  1  0
 25 26  1  0
 26 27  1  0
 27 28  1  0
 13  4  1  0
 26 15  1  0
 12  7  1  0
 21 18  1  0
M  END
>  <AAScore>  (1) 
529.5708554537626

>  <RootName>  (1) 
./4ZLY/04_DeltaGEst/trajectory_02/rank_00/lead_0142

$$$$
