confid_15
     RDKit          3D

 28 31  0  0  0  0  0  0  0  0999 V2000
   24.5500   26.3900   36.2500 N   0  0  0  0  0  0  0  0  0  0  0  0
   25.6000   26.1300   35.4000 C   0  0  0  0  0  0  0  0  0  0  0  0
   25.4300   25.4300   34.4200 O   0  0  0  0  0  0  0  0  0  0  0  0
   26.9800   26.6300   35.7100 C   0  0  0  0  0  0  0  0  0  0  0  0
   27.3200   26.8200   36.9800 N   0  0  0  0  0  0  0  0  0  0  0  0
   28.4700   27.4000   37.3100 N   0  0  0  0  0  0  0  0  0  0  0  0
   29.4000   27.6300   36.3700 C   0  0  0  0  0  0  0  0  0  0  0  0
   30.6600   28.0500   36.8000 C   0  0  0  0  0  0  0  0  0  0  0  0
   31.5700   28.3600   35.7800 C   0  0  0  0  0  0  0  0  0  0  0  0
   31.3700   28.1000   34.4300 C   0  0  0  0  0  0  0  0  0  0  0  0
   30.1200   27.5900   34.0500 C   0  0  0  0  0  0  0  0  0  0  0  0
   29.1500   27.3400   35.0300 C   0  0  0  0  0  0  0  0  0  0  0  0
   27.8800   26.8900   34.6600 C   0  0  0  0  0  0  0  0  0  0  0  0
   27.4800   26.6100   33.3700 N   0  0  0  0  0  0  0  0  0  0  0  0
   23.1854   25.9075   35.9967 C   0  0  0  0  0  0  0  0  0  0  0  0
   22.5584   26.6664   34.8047 C   0  0  0  0  0  0  0  0  0  0  0  0
   21.0411   26.8891   34.9635 C   0  0  0  0  0  0  0  0  0  0  0  0
   20.3656   25.7632   35.6474 N   0  0  0  0  0  0  0  0  0  0  0  0
   20.3026   24.5344   34.8236 C   0  0  0  0  0  0  0  0  0  0  0  0
   19.4156   24.7325   33.6220 C   0  0  0  0  0  0  0  0  0  0  0  0
   18.0333   24.9000   33.7824 C   0  0  0  0  0  0  0  0  0  0  0  0
   17.2395   25.1100   32.6994 N   0  0  0  0  0  0  0  0  0  0  0  0
   17.7457   25.1607   31.4389 C   0  0  0  0  0  0  0  0  0  0  0  0
   19.1196   24.9862   31.2236 C   0  0  0  0  0  0  0  0  0  0  0  0
   19.6954   25.0884   29.8428 C   0  0  0  0  0  0  0  0  0  0  0  0
   19.9568   24.7871   32.3294 C   0  0  0  0  0  0  0  0  0  0  0  0
   20.8974   25.5108   37.0144 C   0  0  0  0  0  0  0  0  0  0  0  0
   22.3189   26.0613   37.2532 C   0  0  0  0  0  0  0  0  0  0  0  0
  1  2  1  0
  2  3  2  0
  2  4  1  0
  4  5  2  0
  5  6  1  0
  6  7  2  0
  7  8  1  0
  8  9  2  0
  9 10  1  0
 10 11  2  0
 11 12  1  0
 12 13  2  0
 13 14  1  0
  1 15  1  0
 15 16  1  0
 16 17  1  0
 17 18  1  0
 18 19  1  0
 19 20  1  0
 20 21  2  0
 21 22  1  0
 22 23  2  0
 23 24  1  0
 24 25  1  0
 24 26  2  0
 18 27  1  0
 27 28  1  0
 13  4  1  0
 28 15  1  0
 12  7  1  0
 26 20  1  0
M  END
>  <AAScore>  (1) 
3364.31175660387

>  <RootName>  (1) 
./4ZLY/04_DeltaGEst/trajectory_01/rank_00/lead_0377

$$$$
