confid_8
     RDKit          3D

 25 26  0  0  0  0  0  0  0  0999 V2000
   24.5700   26.8800   35.5900 N   0  0  0  0  0  0  0  0  0  0  0  0
   25.5000   26.4000   34.6900 C   0  0  0  0  0  0  0  0  0  0  0  0
   25.1700   25.5200   33.9100 O   0  0  0  0  0  0  0  0  0  0  0  0
   26.8400   27.0200   34.7400 C   0  0  0  0  0  0  0  0  0  0  0  0
   27.3800   27.2800   35.9400 N   0  0  0  0  0  0  0  0  0  0  0  0
   28.6200   27.7400   36.0300 N   0  0  0  0  0  0  0  0  0  0  0  0
   29.3800   28.0000   34.9600 C   0  0  0  0  0  0  0  0  0  0  0  0
   30.6700   28.5000   35.1300 C   0  0  0  0  0  0  0  0  0  0  0  0
   31.5400   28.6100   34.0300 C   0  0  0  0  0  0  0  0  0  0  0  0
   31.0900   28.2200   32.7700 C   0  0  0  0  0  0  0  0  0  0  0  0
   29.8000   27.7000   32.6000 C   0  0  0  0  0  0  0  0  0  0  0  0
   28.9600   27.5500   33.7100 C   0  0  0  0  0  0  0  0  0  0  0  0
   27.6600   27.0300   33.5900 C   0  0  0  0  0  0  0  0  0  0  0  0
   27.1600   26.7400   32.3400 N   0  0  0  0  0  0  0  0  0  0  0  0
   33.1614   29.2650   34.2437 S   0  0  0  0  0  6  0  0  0  0  0  0
   33.7001   28.7786   35.5601 O   0  0  0  0  0  0  0  0  0  0  0  0
   34.0472   28.7671   33.1354 O   0  0  0  0  0  0  0  0  0  0  0  0
   33.0739   31.0560   34.2249 C   0  0  0  0  0  0  0  0  0  0  0  0
   34.3711   31.7596   33.7474 C   0  0  0  0  0  0  0  0  0  0  0  0
   35.6757   31.7037   34.6200 C   0  0  0  0  0  0  0  0  0  0  0  0
   35.3924   31.8920   36.1239 C   0  0  0  0  0  0  0  0  0  0  0  0
   36.4497   30.3850   34.4038 C   0  0  0  0  0  0  0  0  0  0  0  0
   36.5977   32.8579   34.1613 C   0  0  0  0  0  0  0  0  0  0  0  0
   32.0697   31.4079   33.3393 F   0  0  0  0  0  0  0  0  0  0  0  0
   32.6901   31.5099   35.4730 F   0  0  0  0  0  0  0  0  0  0  0  0
  1  2  1  0
  2  3  2  0
  2  4  1  0
  4  5  2  0
  5  6  1  0
  6  7  2  0
  7  8  1  0
  8  9  2  0
  9 10  1  0
 10 11  2  0
 11 12  1  0
 12 13  2  0
 13 14  1  0
  9 15  1  0
 15 16  2  0
 15 17  2  0
 15 18  1  0
 18 19  1  0
 19 20  1  0
 20 21  1  0
 20 22  1  0
 20 23  1  0
 18 24  1  0
 18 25  1  0
 13  4  1  0
 12  7  1  0
M  END
>  <AAScore>  (1) 
-5.368951322496096

>  <RootName>  (1) 
./4ZLY/04_DeltaGEst/trajectory_05/rank_01/lead_0157

$$$$
