confid_2
     RDKit          3D

 28 30  0  0  0  0  0  0  0  0999 V2000
   24.5700   26.8800   35.5900 N   0  0  0  0  0  0  0  0  0  0  0  0
   25.5000   26.4000   34.6900 C   0  0  0  0  0  0  0  0  0  0  0  0
   25.1700   25.5200   33.9100 O   0  0  0  0  0  0  0  0  0  0  0  0
   26.8400   27.0200   34.7400 C   0  0  0  0  0  0  0  0  0  0  0  0
   27.3800   27.2800   35.9400 N   0  0  0  0  0  0  0  0  0  0  0  0
   28.6200   27.7400   36.0300 N   0  0  0  0  0  0  0  0  0  0  0  0
   29.3800   28.0000   34.9600 C   0  0  0  0  0  0  0  0  0  0  0  0
   30.6700   28.5000   35.1300 C   0  0  0  0  0  0  0  0  0  0  0  0
   31.5400   28.6100   34.0300 C   0  0  0  0  0  0  0  0  0  0  0  0
   31.0900   28.2200   32.7700 C   0  0  0  0  0  0  0  0  0  0  0  0
   29.8000   27.7000   32.6000 C   0  0  0  0  0  0  0  0  0  0  0  0
   28.9600   27.5500   33.7100 C   0  0  0  0  0  0  0  0  0  0  0  0
   27.6600   27.0300   33.5900 C   0  0  0  0  0  0  0  0  0  0  0  0
   27.1600   26.7400   32.3400 N   0  0  0  0  0  0  0  0  0  0  0  0
   33.1771   29.2251   34.2292 S   0  0  0  0  0  6  0  0  0  0  0  0
   33.4627   30.2148   33.1347 O   0  0  0  0  0  0  0  0  0  0  0  0
   33.2947   29.9273   35.5535 O   0  0  0  0  0  0  0  0  0  0  0  0
   34.3207   27.8391   34.1863 C   0  0  0  0  0  0  0  0  0  0  0  0
   35.7856   28.2087   33.8579 C   0  0  0  0  0  0  0  0  0  0  0  0
   36.0019   28.5019   32.3503 C   0  0  0  0  0  0  0  0  0  0  0  0
   37.0605   29.5869   32.1036 C   0  0  0  0  0  0  0  0  0  0  0  0
   38.1883   29.4225   33.0402 N   0  0  0  0  0  0  0  0  0  0  0  0
   39.4312   30.1336   32.6569 C   0  0  0  0  0  0  0  0  0  0  0  0
   39.2489   31.5802   32.1373 C   0  0  0  0  0  0  0  0  0  0  0  0
   38.7339   32.5608   33.1989 C   0  0  0  0  0  0  0  0  0  0  0  0
   38.7500   33.9948   32.6768 C   0  0  0  0  0  0  0  0  0  0  0  0
   37.8372   29.5573   34.4750 C   0  0  0  0  0  0  0  0  0  0  0  0
   36.3402   29.3326   34.7533 C   0  0  0  0  0  0  0  0  0  0  0  0
  1  2  1  0
  2  3  2  0
  2  4  1  0
  4  5  2  0
  5  6  1  0
  6  7  2  0
  7  8  1  0
  8  9  2  0
  9 10  1  0
 10 11  2  0
 11 12  1  0
 12 13  2  0
 13 14  1  0
  9 15  1  0
 15 16  2  0
 15 17  2  0
 15 18  1  0
 18 19  1  0
 19 20  1  0
 20 21  1  0
 21 22  1  0
 22 23  1  0
 23 24  1  0
 24 25  1  0
 25 26  1  0
 22 27  1  0
 27 28  1  0
 13  4  1  0
 28 19  1  0
 12  7  1  0
M  END
>  <AAScore>  (1) 
-1.8098706846648576

>  <RootName>  (1) 
./4ZLY/04_DeltaGEst/trajectory_05/rank_01/lead_0491

$$$$
