confid_2
     RDKit          3D

 29 33  0  0  0  0  0  0  0  0999 V2000
   24.5500   26.3900   36.2500 N   0  0  0  0  0  0  0  0  0  0  0  0
   25.6000   26.1300   35.4000 C   0  0  0  0  0  0  0  0  0  0  0  0
   25.4300   25.4300   34.4200 O   0  0  0  0  0  0  0  0  0  0  0  0
   26.9800   26.6300   35.7100 C   0  0  0  0  0  0  0  0  0  0  0  0
   27.3200   26.8200   36.9800 N   0  0  0  0  0  0  0  0  0  0  0  0
   28.4700   27.4000   37.3100 N   0  0  0  0  0  0  0  0  0  0  0  0
   29.4000   27.6300   36.3700 C   0  0  0  0  0  0  0  0  0  0  0  0
   30.6600   28.0500   36.8000 C   0  0  0  0  0  0  0  0  0  0  0  0
   31.5700   28.3600   35.7800 C   0  0  0  0  0  0  0  0  0  0  0  0
   31.3700   28.1000   34.4300 C   0  0  0  0  0  0  0  0  0  0  0  0
   30.1200   27.5900   34.0500 C   0  0  0  0  0  0  0  0  0  0  0  0
   29.1500   27.3400   35.0300 C   0  0  0  0  0  0  0  0  0  0  0  0
   27.8800   26.8900   34.6600 C   0  0  0  0  0  0  0  0  0  0  0  0
   27.4800   26.6100   33.3700 N   0  0  0  0  0  0  0  0  0  0  0  0
   30.9606   28.3224   38.1777 N   0  0  0  0  0  0  0  0  0  0  0  0
   32.0164   27.5488   38.8451 C   0  0  0  0  0  0  0  0  0  0  0  0
   32.1810   27.9856   40.3035 C   0  0  0  0  0  0  0  0  0  0  0  0
   30.8566   28.1247   40.9255 N   0  0  0  0  0  0  0  0  0  0  0  0
   30.5120   27.3716   42.1051 C   0  0  0  0  0  0  0  0  0  0  0  0
   29.8455   27.9896   43.1717 C   0  0  0  0  0  0  0  0  0  0  0  0
   29.5011   27.2395   44.2958 C   0  0  0  0  0  0  0  0  0  0  0  0
   29.8056   25.9170   44.3531 N   0  0  0  0  0  0  0  0  0  0  0  0
   30.4458   25.2714   43.3402 C   0  0  0  0  0  0  0  0  0  0  0  0
   30.8080   26.0012   42.1886 C   0  0  0  0  0  0  0  0  0  0  0  0
   30.7211   23.7929   43.5251 C   0  0  0  0  0  0  0  0  0  0  0  0
   32.0162   23.2499   42.9371 C   0  0  0  0  0  0  0  0  0  0  0  0
   30.6807   22.9062   42.2876 C   0  0  0  0  0  0  0  0  0  0  0  0
   29.8285   28.9498   40.2690 C   0  0  0  0  0  0  0  0  0  0  0  0
   30.2824   29.4193   38.8806 C   0  0  0  0  0  0  0  0  0  0  0  0
  1  2  1  0
  2  3  2  0
  2  4  1  0
  4  5  2  0
  5  6  1  0
  6  7  2  0
  7  8  1  0
  8  9  2  0
  9 10  1  0
 10 11  2  0
 11 12  1  0
 12 13  2  0
 13 14  1  0
  8 15  1  0
 15 16  1  0
 16 17  1  0
 17 18  1  0
 18 19  1  0
 19 20  2  0
 20 21  1  0
 21 22  2  0
 22 23  1  0
 23 24  2  0
 23 25  1  0
 25 26  1  0
 26 27  1  0
 18 28  1  0
 28 29  1  0
 13  4  1  0
 29 15  1  0
 12  7  1  0
 24 19  1  0
 27 25  1  0
M  END
>  <AAScore>  (1) 
353.71349910803434

>  <RootName>  (1) 
./4ZLY/04_DeltaGEst/trajectory_01/rank_01/lead_0071

$$$$
