confid_17
     RDKit          3D

 27 30  0  0  0  0  0  0  0  0999 V2000
   24.2000   26.2400   35.6900 N   0  0  0  0  0  0  0  0  0  0  0  0
   24.8500   26.2800   34.4800 C   0  0  0  0  0  0  0  0  0  0  0  0
   24.3100   25.7400   33.5400 O   0  0  0  0  0  0  0  0  0  0  0  0
   26.1800   26.9700   34.4700 C   0  0  0  0  0  0  0  0  0  0  0  0
   26.6500   27.6000   35.5500 N   0  0  0  0  0  0  0  0  0  0  0  0
   27.7900   28.2700   35.6200 N   0  0  0  0  0  0  0  0  0  0  0  0
   28.5400   28.3000   34.5100 C   0  0  0  0  0  0  0  0  0  0  0  0
   29.7700   28.9400   34.5600 C   0  0  0  0  0  0  0  0  0  0  0  0
   30.7000   28.8900   33.5000 C   0  0  0  0  0  0  0  0  0  0  0  0
   30.3700   28.1400   32.3700 C   0  0  0  0  0  0  0  0  0  0  0  0
   29.1200   27.5200   32.2800 C   0  0  0  0  0  0  0  0  0  0  0  0
   28.2100   27.6100   33.3300 C   0  0  0  0  0  0  0  0  0  0  0  0
   26.9700   26.9700   33.3100 C   0  0  0  0  0  0  0  0  0  0  0  0
   26.5300   26.2400   32.2200 N   0  0  0  0  0  0  0  0  0  0  0  0
   22.7910   25.9915   35.8440 C   0  0  0  0  0  0  0  0  0  0  0  0
   21.9212   25.9010   34.8125 N   0  0  0  0  0  0  0  0  0  0  0  0
   20.7208   25.7235   35.4048 C   0  0  0  0  0  0  0  0  0  0  0  0
   20.8779   25.7244   36.7760 C   0  0  0  0  0  0  0  0  0  0  0  0
   19.7691   25.6472   37.7834 C   0  0  0  0  0  0  0  0  0  0  0  0
   20.0167   26.5875   38.8096 O   0  0  0  0  0  0  0  0  0  0  0  0
   19.6463   26.0885   40.0803 C   0  0  0  0  0  0  0  0  0  0  0  0
   20.4278   26.8272   41.1722 C   0  0  0  0  0  0  0  0  0  0  0  0
   21.9144   27.0731   40.8394 C   0  0  0  0  0  0  0  0  0  0  0  0
   22.7759   25.7988   40.7006 C   0  0  0  0  0  0  0  0  0  0  0  0
   22.6906   25.1061   39.3309 C   0  0  0  0  0  0  0  0  0  0  0  0
   22.8047   26.0503   38.2689 O   0  0  0  0  0  0  0  0  0  0  0  0
   22.1933   25.8615   37.0428 N   0  0  0  0  0  0  0  0  0  0  0  0
  1  2  1  0
  2  3  2  0
  2  4  1  0
  4  5  2  0
  5  6  1  0
  6  7  2  0
  7  8  1  0
  8  9  2  0
  9 10  1  0
 10 11  2  0
 11 12  1  0
 12 13  2  0
 13 14  1  0
  1 15  1  0
 15 16  2  0
 16 17  1  0
 17 18  2  0
 18 19  1  0
 19 20  1  0
 20 21  1  0
 21 22  1  0
 22 23  1  0
 23 24  1  0
 24 25  1  0
 25 26  1  0
 26 27  1  0
 13  4  1  0
 27 15  1  0
 12  7  1  0
 27 18  1  0
M  END
>  <AAScore>  (1) 
728.1613421930242

>  <RootName>  (1) 
./4ZLY/04_DeltaGEst/trajectory_04/rank_00/lead_0156

$$$$
