confid_13
     RDKit          3D

 27 29  0  0  0  0  0  0  0  0999 V2000
   24.5500   26.3900   36.2500 N   0  0  0  0  0  0  0  0  0  0  0  0
   25.6000   26.1300   35.4000 C   0  0  0  0  0  0  0  0  0  0  0  0
   25.4300   25.4300   34.4200 O   0  0  0  0  0  0  0  0  0  0  0  0
   26.9800   26.6300   35.7100 C   0  0  0  0  0  0  0  0  0  0  0  0
   27.3200   26.8200   36.9800 N   0  0  0  0  0  0  0  0  0  0  0  0
   28.4700   27.4000   37.3100 N   0  0  0  0  0  0  0  0  0  0  0  0
   29.4000   27.6300   36.3700 C   0  0  0  0  0  0  0  0  0  0  0  0
   30.6600   28.0500   36.8000 C   0  0  0  0  0  0  0  0  0  0  0  0
   31.5700   28.3600   35.7800 C   0  0  0  0  0  0  0  0  0  0  0  0
   31.3700   28.1000   34.4300 C   0  0  0  0  0  0  0  0  0  0  0  0
   30.1200   27.5900   34.0500 C   0  0  0  0  0  0  0  0  0  0  0  0
   29.1500   27.3400   35.0300 C   0  0  0  0  0  0  0  0  0  0  0  0
   27.8800   26.8900   34.6600 C   0  0  0  0  0  0  0  0  0  0  0  0
   27.4800   26.6100   33.3700 N   0  0  0  0  0  0  0  0  0  0  0  0
   23.1791   25.9232   36.0001 C   0  0  2  0  0  0  0  0  0  0  0  0
   22.4556   26.9440   35.0929 C   0  0  0  0  0  0  0  0  0  0  0  0
   21.2429   26.3451   34.3421 C   0  0  0  0  0  0  0  0  0  0  0  0
   19.9380   26.6018   34.9822 N   0  0  0  0  0  0  0  0  0  0  0  0
   19.1891   27.7860   34.5137 C   0  0  0  0  0  0  0  0  0  0  0  0
   19.9708   29.1060   34.6144 C   0  0  0  0  0  0  0  0  0  0  0  0
   19.1326   30.2248   34.1697 C   0  0  0  0  0  0  0  0  0  0  0  0
   18.4715   31.1076   33.8190 N   0  0  0  0  0  0  0  0  0  0  0  0
   19.8561   26.3292   36.7058 S   0  0  0  0  0  6  0  0  0  0  0  0
   18.4899   25.7989   37.0379 O   0  0  0  0  0  0  0  0  0  0  0  0
   20.0681   27.6120   37.4601 O   0  0  0  0  0  0  0  0  0  0  0  0
   21.0632   25.1168   37.2277 C   0  0  0  0  0  0  0  0  0  0  0  0
   22.4670   25.7197   37.3520 C   0  0  0  0  0  0  0  0  0  0  0  0
  1  2  1  0
  2  3  2  0
  2  4  1  0
  4  5  2  0
  5  6  1  0
  6  7  2  0
  7  8  1  0
  8  9  2  0
  9 10  1  0
 10 11  2  0
 11 12  1  0
 12 13  2  0
 13 14  1  0
 15  1  1  1
 15 16  1  0
 16 17  1  0
 17 18  1  0
 18 19  1  0
 19 20  1  0
 20 21  1  0
 21 22  3  0
 18 23  1  0
 23 24  2  0
 23 25  2  0
 23 26  1  0
 26 27  1  0
 13  4  1  0
 27 15  1  0
 12  7  1  0
M  END
>  <AAScore>  (1) 
437.0281502407226

>  <RootName>  (1) 
./4ZLY/04_DeltaGEst/trajectory_01/rank_00/lead_0212

$$$$
