confid_1
     RDKit          3D

 27 30  0  0  0  0  0  0  0  0999 V2000
   25.3300   26.2600   34.7600 N   0  0  0  0  0  0  0  0  0  0  0  0
   26.1200   25.9200   33.6900 C   0  0  0  0  0  0  0  0  0  0  0  0
   25.6300   25.1100   32.9400 O   0  0  0  0  0  0  0  0  0  0  0  0
   27.5200   26.3800   33.4600 C   0  0  0  0  0  0  0  0  0  0  0  0
   28.1600   26.6300   34.6100 N   0  0  0  0  0  0  0  0  0  0  0  0
   29.4800   26.8500   34.5700 N   0  0  0  0  0  0  0  0  0  0  0  0
   30.1900   26.7800   33.4400 C   0  0  0  0  0  0  0  0  0  0  0  0
   31.5600   27.0500   33.5000 C   0  0  0  0  0  0  0  0  0  0  0  0
   32.2700   27.2400   32.3100 C   0  0  0  0  0  0  0  0  0  0  0  0
   31.6100   27.2500   31.0800 C   0  0  0  0  0  0  0  0  0  0  0  0
   30.2700   26.8700   31.0600 C   0  0  0  0  0  0  0  0  0  0  0  0
   29.5100   26.6900   32.2300 C   0  0  0  0  0  0  0  0  0  0  0  0
   28.1400   26.4100   32.2000 C   0  0  0  0  0  0  0  0  0  0  0  0
   27.4300   26.1300   31.0500 N   0  0  0  0  0  0  0  0  0  0  0  0
   23.8914   26.2071   34.7819 C   0  0  0  0  0  0  0  0  0  0  0  0
   23.2585   26.0119   35.9677 N   0  0  0  0  0  0  0  0  0  0  0  0
   21.9052   25.9774   36.0714 C   0  0  0  0  0  0  0  0  0  0  0  0
   21.0943   26.1469   34.9362 C   0  0  0  0  0  0  0  0  0  0  0  0
   19.5927   26.2292   35.1184 C   0  0  0  0  0  0  0  0  0  0  0  0
   18.9200   25.3072   34.2771 O   0  0  0  0  0  0  0  0  0  0  0  0
   18.2141   25.9454   33.2237 C   0  0  0  0  0  0  0  0  0  0  0  0
   18.7456   25.4713   31.8663 C   0  0  0  0  0  0  0  0  0  0  0  0
   20.2745   25.3404   31.8249 C   0  0  0  0  0  0  0  0  0  0  0  0
   20.9737   26.5230   32.4332 C   0  0  0  0  0  0  0  0  0  0  0  0
   20.9648   27.6337   31.8384 O   0  0  0  0  0  0  0  0  0  0  0  0
   21.7284   26.3712   33.6898 C   0  0  0  0  0  0  0  0  0  0  0  0
   23.1273   26.4145   33.6234 C   0  0  0  0  0  0  0  0  0  0  0  0
  1  2  1  0
  2  3  2  0
  2  4  1  0
  4  5  2  0
  5  6  1  0
  6  7  2  0
  7  8  1  0
  8  9  2  0
  9 10  1  0
 10 11  2  0
 11 12  1  0
 12 13  2  0
 13 14  1  0
  1 15  1  0
 15 16  2  0
 16 17  1  0
 17 18  2  0
 18 19  1  0
 19 20  1  0
 20 21  1  0
 21 22  1  0
 22 23  1  0
 23 24  1  0
 24 25  2  0
 24 26  1  0
 26 27  2  0
 13  4  1  0
 27 15  1  0
 12  7  1  0
 26 18  1  0
M  END
>  <AAScore>  (1) 
4604.235350492336

>  <RootName>  (1) 
./4ZLY/04_DeltaGEst/trajectory_03/rank_00/lead_0004

$$$$
