confid_1
     RDKit          3D

 27 30  0  0  0  0  0  0  0  0999 V2000
   25.3300   26.2600   34.7600 N   0  0  0  0  0  0  0  0  0  0  0  0
   26.1200   25.9200   33.6900 C   0  0  0  0  0  0  0  0  0  0  0  0
   25.6300   25.1100   32.9400 O   0  0  0  0  0  0  0  0  0  0  0  0
   27.5200   26.3800   33.4600 C   0  0  0  0  0  0  0  0  0  0  0  0
   28.1600   26.6300   34.6100 N   0  0  0  0  0  0  0  0  0  0  0  0
   29.4800   26.8500   34.5700 N   0  0  0  0  0  0  0  0  0  0  0  0
   30.1900   26.7800   33.4400 C   0  0  0  0  0  0  0  0  0  0  0  0
   31.5600   27.0500   33.5000 C   0  0  0  0  0  0  0  0  0  0  0  0
   32.2700   27.2400   32.3100 C   0  0  0  0  0  0  0  0  0  0  0  0
   31.6100   27.2500   31.0800 C   0  0  0  0  0  0  0  0  0  0  0  0
   30.2700   26.8700   31.0600 C   0  0  0  0  0  0  0  0  0  0  0  0
   29.5100   26.6900   32.2300 C   0  0  0  0  0  0  0  0  0  0  0  0
   28.1400   26.4100   32.2000 C   0  0  0  0  0  0  0  0  0  0  0  0
   27.4300   26.1300   31.0500 N   0  0  0  0  0  0  0  0  0  0  0  0
   24.1709   25.5342   35.2231 C   0  0  0  0  0  0  0  0  0  0  0  0
   23.9249   24.2679   34.7857 N   0  0  0  0  0  0  0  0  0  0  0  0
   22.8600   23.5449   35.2165 C   0  0  0  0  0  0  0  0  0  0  0  0
   21.9748   24.0858   36.1553 C   0  0  0  0  0  0  0  0  0  0  0  0
   20.7621   23.2985   36.5987 C   0  0  0  0  0  0  0  0  0  0  0  0
   20.2932   23.6904   37.9450 N   0  0  0  0  0  0  0  0  0  0  0  0
   21.2029   23.2184   39.0041 C   0  0  0  0  0  0  0  0  0  0  0  0
   20.0435   25.1440   38.0373 C   0  0  0  0  0  0  0  0  0  0  0  0
   21.2372   25.9547   37.6090 C   0  0  0  0  0  0  0  0  0  0  0  0
   21.3851   27.1203   38.0652 O   0  0  0  0  0  0  0  0  0  0  0  0
   22.1870   25.3941   36.6222 C   0  0  0  0  0  0  0  0  0  0  0  0
   23.3021   26.1191   36.1599 C   0  0  0  0  0  0  0  0  0  0  0  0
   23.5405   27.3808   36.6025 F   0  0  0  0  0  0  0  0  0  0  0  0
  1  2  1  0
  2  3  2  0
  2  4  1  0
  4  5  2  0
  5  6  1  0
  6  7  2  0
  7  8  1  0
  8  9  2  0
  9 10  1  0
 10 11  2  0
 11 12  1  0
 12 13  2  0
 13 14  1  0
  1 15  1  0
 15 16  2  0
 16 17  1  0
 17 18  2  0
 18 19  1  0
 19 20  1  0
 20 21  1  0
 20 22  1  0
 22 23  1  0
 23 24  2  0
 23 25  1  0
 25 26  2  0
 26 27  1  0
 13  4  1  0
 26 15  1  0
 12  7  1  0
 25 18  1  0
M  END
>  <AAScore>  (1) 
10441.947641535564

>  <RootName>  (1) 
./4ZLY/04_DeltaGEst/trajectory_03/rank_00/lead_0339

$$$$
