confid_18
     RDKit          3D

 30 33  0  0  0  0  0  0  0  0999 V2000
   25.3300   26.2600   34.7600 N   0  0  0  0  0  0  0  0  0  0  0  0
   26.1200   25.9200   33.6900 C   0  0  0  0  0  0  0  0  0  0  0  0
   25.6300   25.1100   32.9400 O   0  0  0  0  0  0  0  0  0  0  0  0
   27.5200   26.3800   33.4600 C   0  0  0  0  0  0  0  0  0  0  0  0
   28.1600   26.6300   34.6100 N   0  0  0  0  0  0  0  0  0  0  0  0
   29.4800   26.8500   34.5700 N   0  0  0  0  0  0  0  0  0  0  0  0
   30.1900   26.7800   33.4400 C   0  0  0  0  0  0  0  0  0  0  0  0
   31.5600   27.0500   33.5000 C   0  0  0  0  0  0  0  0  0  0  0  0
   32.2700   27.2400   32.3100 C   0  0  0  0  0  0  0  0  0  0  0  0
   31.6100   27.2500   31.0800 C   0  0  0  0  0  0  0  0  0  0  0  0
   30.2700   26.8700   31.0600 C   0  0  0  0  0  0  0  0  0  0  0  0
   29.5100   26.6900   32.2300 C   0  0  0  0  0  0  0  0  0  0  0  0
   28.1400   26.4100   32.2000 C   0  0  0  0  0  0  0  0  0  0  0  0
   27.4300   26.1300   31.0500 N   0  0  0  0  0  0  0  0  0  0  0  0
   26.5095   27.1275   30.4955 C   0  0  0  0  0  0  0  0  0  0  0  0
   26.6948   27.2675   28.9689 C   0  0  0  0  0  0  0  0  0  0  0  0
   27.3343   26.0837   28.3365 N   0  0  0  0  0  0  0  0  0  0  0  0
   27.0285   26.0098   26.8937 C   0  0  0  0  0  0  0  0  0  0  0  0
   27.6703   27.1491   26.1565 C   0  0  0  0  0  0  0  0  0  0  0  0
   26.9461   28.0631   25.6772 O   0  0  0  0  0  0  0  0  0  0  0  0
   29.1017   27.2251   26.0690 N   0  0  0  0  0  0  0  0  0  0  0  0
   29.8137   28.1253   25.2029 C   0  0  0  0  0  0  0  0  0  0  0  0
   29.2999   28.4986   23.9468 C   0  0  0  0  0  0  0  0  0  0  0  0
   30.0301   29.3489   23.1107 C   0  0  0  0  0  0  0  0  0  0  0  0
   31.2817   29.8230   23.5118 C   0  0  0  0  0  0  0  0  0  0  0  0
   31.9903   30.6425   22.6968 F   0  0  0  0  0  0  0  0  0  0  0  0
   31.8084   29.4411   24.7480 C   0  0  0  0  0  0  0  0  0  0  0  0
   31.0814   28.5907   25.5872 C   0  0  0  0  0  0  0  0  0  0  0  0
   26.9469   24.8334   29.0122 C   0  0  0  0  0  0  0  0  0  0  0  0
   27.5727   24.8178   30.4067 C   0  0  0  0  0  0  0  0  0  0  0  0
  1  2  1  0
  2  3  2  0
  2  4  1  0
  4  5  2  0
  5  6  1  0
  6  7  2  0
  7  8  1  0
  8  9  2  0
  9 10  1  0
 10 11  2  0
 11 12  1  0
 12 13  2  0
 13 14  1  0
 14 15  1  0
 15 16  1  0
 16 17  1  0
 17 18  1  0
 18 19  1  0
 19 20  2  0
 19 21  1  0
 21 22  1  0
 22 23  2  0
 23 24  1  0
 24 25  2  0
 25 26  1  0
 25 27  1  0
 27 28  2  0
 17 29  1  0
 29 30  1  0
 13  4  1  0
 30 14  1  0
 12  7  1  0
 28 22  1  0
M  END
>  <AAScore>  (1) 
-2.3836017754709604

>  <RootName>  (1) 
./4ZLY/04_DeltaGEst/trajectory_03/rank_01/lead_0342

$$$$
