confid_1
     RDKit          3D

 29 32  0  0  0  0  0  0  0  0999 V2000
   24.5500   26.3900   36.2500 N   0  0  0  0  0  0  0  0  0  0  0  0
   25.6000   26.1300   35.4000 C   0  0  0  0  0  0  0  0  0  0  0  0
   25.4300   25.4300   34.4200 O   0  0  0  0  0  0  0  0  0  0  0  0
   26.9800   26.6300   35.7100 C   0  0  0  0  0  0  0  0  0  0  0  0
   27.3200   26.8200   36.9800 N   0  0  0  0  0  0  0  0  0  0  0  0
   28.4700   27.4000   37.3100 N   0  0  0  0  0  0  0  0  0  0  0  0
   29.4000   27.6300   36.3700 C   0  0  0  0  0  0  0  0  0  0  0  0
   30.6600   28.0500   36.8000 C   0  0  0  0  0  0  0  0  0  0  0  0
   31.5700   28.3600   35.7800 C   0  0  0  0  0  0  0  0  0  0  0  0
   31.3700   28.1000   34.4300 C   0  0  0  0  0  0  0  0  0  0  0  0
   30.1200   27.5900   34.0500 C   0  0  0  0  0  0  0  0  0  0  0  0
   29.1500   27.3400   35.0300 C   0  0  0  0  0  0  0  0  0  0  0  0
   27.8800   26.8900   34.6600 C   0  0  0  0  0  0  0  0  0  0  0  0
   27.4800   26.6100   33.3700 N   0  0  0  0  0  0  0  0  0  0  0  0
   23.2136   25.8680   36.1064 C   0  0  0  0  0  0  0  0  0  0  0  0
   22.8996   25.0129   35.0968 N   0  0  0  0  0  0  0  0  0  0  0  0
   21.6527   24.5005   34.9435 C   0  0  0  0  0  0  0  0  0  0  0  0
   20.6252   24.8401   35.8372 C   0  0  0  0  0  0  0  0  0  0  0  0
   19.2660   24.1862   35.6684 C   0  0  0  0  0  0  0  0  0  0  0  0
   19.1150   22.9200   36.4276 N   0  0  0  0  0  0  0  0  0  0  0  0
   19.7251   21.7884   35.7082 C   0  0  0  0  0  0  0  0  0  0  0  0
   19.6260   22.9757   37.8159 C   0  0  0  0  0  0  0  0  0  0  0  0
   18.8811   24.0249   38.6761 C   0  0  0  0  0  0  0  0  0  0  0  0
   19.6775   25.2277   39.0187 N   0  0  0  0  0  0  0  0  0  0  0  0
   20.8916   25.0132   39.8394 C   0  0  0  0  0  0  0  0  0  0  0  0
   20.5589   24.4133   41.2043 C   0  0  0  0  0  0  0  0  0  0  0  0
   19.8699   26.1808   37.9059 C   0  0  0  0  0  0  0  0  0  0  0  0
   20.9155   25.7358   36.8967 C   0  0  0  0  0  0  0  0  0  0  0  0
   22.2212   26.2393   37.0209 C   0  0  0  0  0  0  0  0  0  0  0  0
  1  2  1  0
  2  3  2  0
  2  4  1  0
  4  5  2  0
  5  6  1  0
  6  7  2  0
  7  8  1  0
  8  9  2  0
  9 10  1  0
 10 11  2  0
 11 12  1  0
 12 13  2  0
 13 14  1  0
  1 15  1  0
 15 16  2  0
 16 17  1  0
 17 18  2  0
 18 19  1  0
 19 20  1  0
 20 21  1  0
 20 22  1  0
 22 23  1  0
 23 24  1  0
 24 25  1  0
 25 26  1  0
 24 27  1  0
 27 28  1  0
 28 29  2  0
 13  4  1  0
 29 15  1  0
 12  7  1  0
 28 18  1  0
M  END
>  <AAScore>  (1) 
4818.441834376728

>  <RootName>  (1) 
./4ZLY/04_DeltaGEst/trajectory_01/rank_00/lead_0250

$$$$
