confid_16
     RDKit          3D

 28 31  0  0  0  0  0  0  0  0999 V2000
   25.3300   26.2600   34.7600 N   0  0  0  0  0  0  0  0  0  0  0  0
   26.1200   25.9200   33.6900 C   0  0  0  0  0  0  0  0  0  0  0  0
   25.6300   25.1100   32.9400 O   0  0  0  0  0  0  0  0  0  0  0  0
   27.5200   26.3800   33.4600 C   0  0  0  0  0  0  0  0  0  0  0  0
   28.1600   26.6300   34.6100 N   0  0  0  0  0  0  0  0  0  0  0  0
   29.4800   26.8500   34.5700 N   0  0  0  0  0  0  0  0  0  0  0  0
   30.1900   26.7800   33.4400 C   0  0  0  0  0  0  0  0  0  0  0  0
   31.5600   27.0500   33.5000 C   0  0  0  0  0  0  0  0  0  0  0  0
   32.2700   27.2400   32.3100 C   0  0  0  0  0  0  0  0  0  0  0  0
   31.6100   27.2500   31.0800 C   0  0  0  0  0  0  0  0  0  0  0  0
   30.2700   26.8700   31.0600 C   0  0  0  0  0  0  0  0  0  0  0  0
   29.5100   26.6900   32.2300 C   0  0  0  0  0  0  0  0  0  0  0  0
   28.1400   26.4100   32.2000 C   0  0  0  0  0  0  0  0  0  0  0  0
   27.4300   26.1300   31.0500 N   0  0  0  0  0  0  0  0  0  0  0  0
   23.9866   25.7846   34.9433 C   0  0  0  0  0  0  0  0  0  0  0  0
   22.9430   26.6346   35.1338 N   0  0  0  0  0  0  0  0  0  0  0  0
   21.9074   25.7925   35.3141 C   0  0  0  0  0  0  0  0  0  0  0  0
   20.7038   25.9901   36.1819 C   0  0  0  0  0  0  0  0  0  0  0  0
   20.4804   24.6464   36.7536 N   0  0  0  0  0  0  0  0  0  0  0  0
   21.5140   23.7851   36.2489 C   0  0  0  0  0  0  0  0  0  0  0  0
   21.6903   22.5849   36.5944 O   0  0  0  0  0  0  0  0  0  0  0  0
   22.3358   24.5176   35.3218 C   0  0  0  0  0  0  0  0  0  0  0  0
   23.6611   24.4740   35.1065 N   0  0  0  0  0  0  0  0  0  0  0  0
   24.5546   23.3743   35.4585 C   0  0  0  0  0  0  0  0  0  0  0  0
   19.4027   24.2603   37.6935 C   0  0  0  0  0  0  0  0  0  0  0  0
   18.6090   23.0684   37.1176 C   0  0  0  0  0  0  0  0  0  0  0  0
   20.0236   23.8723   39.0498 C   0  0  0  0  0  0  0  0  0  0  0  0
   18.4190   25.4306   37.9168 C   0  0  0  0  0  0  0  0  0  0  0  0
  1  2  1  0
  2  3  2  0
  2  4  1  0
  4  5  2  0
  5  6  1  0
  6  7  2  0
  7  8  1  0
  8  9  2  0
  9 10  1  0
 10 11  2  0
 11 12  1  0
 12 13  2  0
 13 14  1  0
  1 15  1  0
 15 16  2  0
 16 17  1  0
 17 18  1  0
 18 19  1  0
 19 20  1  0
 20 21  2  0
 20 22  1  0
 22 23  1  0
 23 24  1  0
 19 25  1  0
 25 26  1  0
 25 27  1  0
 25 28  1  0
 13  4  1  0
 23 15  1  0
 12  7  1  0
 22 17  2  0
M  END
>  <AAScore>  (1) 
63579.81246701929

>  <RootName>  (1) 
./4ZLY/04_DeltaGEst/trajectory_03/rank_00/lead_0263

$$$$
