confid_13
     RDKit          3D

 29 32  0  0  0  0  0  0  0  0999 V2000
   24.6900   26.1200   35.5300 N   0  0  0  0  0  0  0  0  0  0  0  0
   25.6600   25.6700   34.6600 C   0  0  0  0  0  0  0  0  0  0  0  0
   25.2400   25.0100   33.7200 O   0  0  0  0  0  0  0  0  0  0  0  0
   27.0300   26.2200   34.8800 C   0  0  0  0  0  0  0  0  0  0  0  0
   27.3500   26.7300   36.0700 N   0  0  0  0  0  0  0  0  0  0  0  0
   28.5700   27.1800   36.3300 N   0  0  0  0  0  0  0  0  0  0  0  0
   29.5300   27.1100   35.3900 C   0  0  0  0  0  0  0  0  0  0  0  0
   30.8300   27.5700   35.6500 C   0  0  0  0  0  0  0  0  0  0  0  0
   31.8500   27.5400   34.6900 C   0  0  0  0  0  0  0  0  0  0  0  0
   31.5100   27.1200   33.4000 C   0  0  0  0  0  0  0  0  0  0  0  0
   30.2200   26.6300   33.1100 C   0  0  0  0  0  0  0  0  0  0  0  0
   29.2400   26.6600   34.1000 C   0  0  0  0  0  0  0  0  0  0  0  0
   27.9300   26.2600   33.8100 C   0  0  0  0  0  0  0  0  0  0  0  0
   27.5200   25.7100   32.6100 N   0  0  0  0  0  0  0  0  0  0  0  0
   31.1531   28.0393   36.9653 N   0  0  0  0  0  0  0  0  0  0  0  0
   31.1423   29.4879   37.2193 C   0  0  0  0  0  0  0  0  0  0  0  0
   31.7944   29.8473   38.5611 C   0  0  0  0  0  0  0  0  0  0  0  0
   31.3205   28.9215   39.6541 C   0  0  0  0  0  0  0  0  0  0  0  0
   31.0279   29.3916   40.9483 C   0  0  0  0  0  0  0  0  0  0  0  0
   31.1414   30.7634   41.2126 O   0  0  0  0  0  0  0  0  0  0  0  0
   30.0517   31.5533   41.6800 C   0  0  0  0  0  0  0  0  0  0  0  0
   30.6396   28.4864   41.9607 C   0  0  0  0  0  0  0  0  0  0  0  0
   30.5693   27.0993   41.6690 C   0  0  0  0  0  0  0  0  0  0  0  0
   30.2666   26.0736   42.7274 C   0  0  0  0  0  0  0  0  0  0  0  0
   30.8448   26.6535   40.3671 C   0  0  0  0  0  0  0  0  0  0  0  0
   31.2113   27.5548   39.3637 C   0  0  0  0  0  0  0  0  0  0  0  0
   31.5605   27.0628   37.9845 C   0  0  0  0  0  0  0  0  0  0  0  0
   30.3952   28.9978   43.2446 O   0  0  0  0  0  0  0  0  0  0  0  0
   29.2481   28.6877   44.0313 C   0  0  0  0  0  0  0  0  0  0  0  0
  1  2  1  0
  2  3  2  0
  2  4  1  0
  4  5  2  0
  5  6  1  0
  6  7  2  0
  7  8  1  0
  8  9  2  0
  9 10  1  0
 10 11  2  0
 11 12  1  0
 12 13  2  0
 13 14  1  0
  8 15  1  0
 15 16  1  0
 16 17  1  0
 17 18  1  0
 18 19  2  0
 19 20  1  0
 20 21  1  0
 19 22  1  0
 22 23  2  0
 23 24  1  0
 23 25  1  0
 25 26  2  0
 26 27  1  0
 22 28  1  0
 28 29  1  0
 13  4  1  0
 27 15  1  0
 12  7  1  0
 26 18  1  0
M  END
>  <AAScore>  (1) 
6.1352199455694

>  <RootName>  (1) 
./4ZLY/04_DeltaGEst/trajectory_02/rank_01/lead_0255

$$$$
