confid_18
     RDKit          3D

 28 31  0  0  0  0  0  0  0  0999 V2000
   24.6900   26.1200   35.5300 N   0  0  0  0  0  0  0  0  0  0  0  0
   25.6600   25.6700   34.6600 C   0  0  0  0  0  0  0  0  0  0  0  0
   25.2400   25.0100   33.7200 O   0  0  0  0  0  0  0  0  0  0  0  0
   27.0300   26.2200   34.8800 C   0  0  0  0  0  0  0  0  0  0  0  0
   27.3500   26.7300   36.0700 N   0  0  0  0  0  0  0  0  0  0  0  0
   28.5700   27.1800   36.3300 N   0  0  0  0  0  0  0  0  0  0  0  0
   29.5300   27.1100   35.3900 C   0  0  0  0  0  0  0  0  0  0  0  0
   30.8300   27.5700   35.6500 C   0  0  0  0  0  0  0  0  0  0  0  0
   31.8500   27.5400   34.6900 C   0  0  0  0  0  0  0  0  0  0  0  0
   31.5100   27.1200   33.4000 C   0  0  0  0  0  0  0  0  0  0  0  0
   30.2200   26.6300   33.1100 C   0  0  0  0  0  0  0  0  0  0  0  0
   29.2400   26.6600   34.1000 C   0  0  0  0  0  0  0  0  0  0  0  0
   27.9300   26.2600   33.8100 C   0  0  0  0  0  0  0  0  0  0  0  0
   27.5200   25.7100   32.6100 N   0  0  0  0  0  0  0  0  0  0  0  0
   23.4629   25.4203   35.7997 C   0  0  0  0  0  0  0  0  0  0  0  0
   23.2685   24.1867   35.4609 N   0  0  0  0  0  0  0  0  0  0  0  0
   22.0070   23.8049   35.9862 C   0  0  0  0  0  0  0  0  0  0  0  0
   21.4589   24.7880   36.6860 C   0  0  0  0  0  0  0  0  0  0  0  0
   19.9880   24.9336   36.9177 C   0  0  0  0  0  0  0  0  0  0  0  0
   19.4539   26.0258   36.0818 N   0  0  0  0  0  0  0  0  0  0  0  0
   18.0262   26.2149   35.9711 C   0  0  0  0  0  0  0  0  0  0  0  0
   17.5551   26.9546   35.0649 O   0  0  0  0  0  0  0  0  0  0  0  0
   17.0717   25.5244   36.8990 C   0  0  0  0  0  0  0  0  0  0  0  0
   20.3723   26.8552   35.2717 C   0  0  0  0  0  0  0  0  0  0  0  0
   21.6379   27.2216   36.0756 C   0  0  0  0  0  0  0  0  0  0  0  0
   22.4901   27.9522   35.2639 F   0  0  0  0  0  0  0  0  0  0  0  0
   21.2551   28.0365   37.1284 F   0  0  0  0  0  0  0  0  0  0  0  0
   22.3630   25.9752   36.6575 C   0  0  2  0  0  0  0  0  0  0  0  0
  1  2  1  0
  2  3  2  0
  2  4  1  0
  4  5  2  0
  5  6  1  0
  6  7  2  0
  7  8  1  0
  8  9  2  0
  9 10  1  0
 10 11  2  0
 11 12  1  0
 12 13  2  0
 13 14  1  0
  1 15  1  0
 15 16  2  0
 16 17  1  0
 17 18  2  0
 18 19  1  0
 19 20  1  0
 20 21  1  0
 21 22  2  0
 21 23  1  0
 20 24  1  0
 24 25  1  0
 25 26  1  0
 25 27  1  0
 28 25  1  6
 13  4  1  0
 28 15  1  0
 12  7  1  0
 28 18  1  0
M  END
>  <AAScore>  (1) 
2601.680559468598

>  <RootName>  (1) 
./4ZLY/04_DeltaGEst/trajectory_02/rank_00/lead_0104

$$$$
