confid_9
     RDKit          3D

 28 31  0  0  0  0  0  0  0  0999 V2000
   24.2000   26.2400   35.6900 N   0  0  0  0  0  0  0  0  0  0  0  0
   24.8500   26.2800   34.4800 C   0  0  0  0  0  0  0  0  0  0  0  0
   24.3100   25.7400   33.5400 O   0  0  0  0  0  0  0  0  0  0  0  0
   26.1800   26.9700   34.4700 C   0  0  0  0  0  0  0  0  0  0  0  0
   26.6500   27.6000   35.5500 N   0  0  0  0  0  0  0  0  0  0  0  0
   27.7900   28.2700   35.6200 N   0  0  0  0  0  0  0  0  0  0  0  0
   28.5400   28.3000   34.5100 C   0  0  0  0  0  0  0  0  0  0  0  0
   29.7700   28.9400   34.5600 C   0  0  0  0  0  0  0  0  0  0  0  0
   30.7000   28.8900   33.5000 C   0  0  0  0  0  0  0  0  0  0  0  0
   30.3700   28.1400   32.3700 C   0  0  0  0  0  0  0  0  0  0  0  0
   29.1200   27.5200   32.2800 C   0  0  0  0  0  0  0  0  0  0  0  0
   28.2100   27.6100   33.3300 C   0  0  0  0  0  0  0  0  0  0  0  0
   26.9700   26.9700   33.3100 C   0  0  0  0  0  0  0  0  0  0  0  0
   26.5300   26.2400   32.2200 N   0  0  0  0  0  0  0  0  0  0  0  0
   22.7718   26.1814   35.8428 C   0  0  0  0  0  0  0  0  0  0  0  0
   22.2277   25.8098   36.9565 N   0  0  0  0  0  0  0  0  0  0  0  0
   20.8198   25.8836   36.7838 C   0  0  0  0  0  0  0  0  0  0  0  0
   20.5145   26.3041   35.5673 C   0  0  0  0  0  0  0  0  0  0  0  0
   19.1677   26.7532   35.0963 C   0  0  0  0  0  0  0  0  0  0  0  0
   19.2712   28.0566   34.4076 N   0  0  0  0  0  0  0  0  0  0  0  0
   18.0816   28.8588   34.2100 C   0  0  0  0  0  0  0  0  0  0  0  0
   18.1014   29.8313   33.4069 O   0  0  0  0  0  0  0  0  0  0  0  0
   16.8061   28.5758   34.9465 C   0  0  0  0  0  0  0  0  0  0  0  0
   20.4793   28.3670   33.6099 C   0  0  0  0  0  0  0  0  0  0  0  0
   21.7739   28.0286   34.3720 C   0  0  0  0  0  0  0  0  0  0  0  0
   22.8557   28.2692   33.5440 F   0  0  0  0  0  0  0  0  0  0  0  0
   21.8763   28.8511   35.4844 F   0  0  0  0  0  0  0  0  0  0  0  0
   21.7555   26.5509   34.7932 C   0  0  1  0  0  0  0  0  0  0  0  0
  1  2  1  0
  2  3  2  0
  2  4  1  0
  4  5  2  0
  5  6  1  0
  6  7  2  0
  7  8  1  0
  8  9  2  0
  9 10  1  0
 10 11  2  0
 11 12  1  0
 12 13  2  0
 13 14  1  0
  1 15  1  0
 15 16  2  0
 16 17  1  0
 17 18  2  0
 18 19  1  0
 19 20  1  0
 20 21  1  0
 21 22  2  0
 21 23  1  0
 20 24  1  0
 24 25  1  0
 25 26  1  0
 25 27  1  0
 28 25  1  1
 13  4  1  0
 28 15  1  0
 12  7  1  0
 28 18  1  0
M  END
>  <AAScore>  (1) 
412.91300044148727

>  <RootName>  (1) 
./4ZLY/04_DeltaGEst/trajectory_04/rank_00/lead_0187

$$$$
