confid_4
     RDKit          3D

 26 29  0  0  0  0  0  0  0  0999 V2000
   24.6900   26.1200   35.5300 N   0  0  0  0  0  0  0  0  0  0  0  0
   25.6600   25.6700   34.6600 C   0  0  0  0  0  0  0  0  0  0  0  0
   25.2400   25.0100   33.7200 O   0  0  0  0  0  0  0  0  0  0  0  0
   27.0300   26.2200   34.8800 C   0  0  0  0  0  0  0  0  0  0  0  0
   27.3500   26.7300   36.0700 N   0  0  0  0  0  0  0  0  0  0  0  0
   28.5700   27.1800   36.3300 N   0  0  0  0  0  0  0  0  0  0  0  0
   29.5300   27.1100   35.3900 C   0  0  0  0  0  0  0  0  0  0  0  0
   30.8300   27.5700   35.6500 C   0  0  0  0  0  0  0  0  0  0  0  0
   31.8500   27.5400   34.6900 C   0  0  0  0  0  0  0  0  0  0  0  0
   31.5100   27.1200   33.4000 C   0  0  0  0  0  0  0  0  0  0  0  0
   30.2200   26.6300   33.1100 C   0  0  0  0  0  0  0  0  0  0  0  0
   29.2400   26.6600   34.1000 C   0  0  0  0  0  0  0  0  0  0  0  0
   27.9300   26.2600   33.8100 C   0  0  0  0  0  0  0  0  0  0  0  0
   27.5200   25.7100   32.6100 N   0  0  0  0  0  0  0  0  0  0  0  0
   23.5626   25.3343   35.9499 C   0  0  0  0  0  0  0  0  0  0  0  0
   22.5581   25.8669   36.5694 N   0  0  0  0  0  0  0  0  0  0  0  0
   21.6457   24.8203   36.8711 C   0  0  0  0  0  0  0  0  0  0  0  0
   22.1019   23.6603   36.4331 C   0  0  0  0  0  0  0  0  0  0  0  0
   21.5908   22.3060   36.7973 C   0  0  0  0  0  0  0  0  0  0  0  0
   22.6034   21.2972   36.4197 N   0  0  0  0  0  0  0  0  0  0  0  0
   22.1690   19.9626   36.8584 C   0  0  0  0  0  0  0  0  0  0  0  0
   23.9197   21.6311   37.0163 C   0  0  0  0  0  0  0  0  0  0  0  0
   24.4897   22.9791   36.4766 C   0  0  0  0  0  0  0  0  0  0  0  0
   25.5009   22.7077   35.5700 F   0  0  0  0  0  0  0  0  0  0  0  0
   25.0457   23.6771   37.5387 F   0  0  0  0  0  0  0  0  0  0  0  0
   23.4151   23.8457   35.7697 C   0  0  2  0  0  0  0  0  0  0  0  0
  1  2  1  0
  2  3  2  0
  2  4  1  0
  4  5  2  0
  5  6  1  0
  6  7  2  0
  7  8  1  0
  8  9  2  0
  9 10  1  0
 10 11  2  0
 11 12  1  0
 12 13  2  0
 13 14  1  0
  1 15  1  0
 15 16  2  0
 16 17  1  0
 17 18  2  0
 18 19  1  0
 19 20  1  0
 20 21  1  0
 20 22  1  0
 22 23  1  0
 23 24  1  0
 23 25  1  0
 26 23  1  1
 13  4  1  0
 26 15  1  0
 12  7  1  0
 26 18  1  0
M  END
>  <AAScore>  (1) 
2324.4038477843787

>  <RootName>  (1) 
./4ZLY/04_DeltaGEst/trajectory_02/rank_00/lead_0363

$$$$
