confid_11
     RDKit          3D

 31 34  0  0  0  0  0  0  0  0999 V2000
   24.5700   26.8800   35.5900 N   0  0  0  0  0  0  0  0  0  0  0  0
   25.5000   26.4000   34.6900 C   0  0  0  0  0  0  0  0  0  0  0  0
   25.1700   25.5200   33.9100 O   0  0  0  0  0  0  0  0  0  0  0  0
   26.8400   27.0200   34.7400 C   0  0  0  0  0  0  0  0  0  0  0  0
   27.3800   27.2800   35.9400 N   0  0  0  0  0  0  0  0  0  0  0  0
   28.6200   27.7400   36.0300 N   0  0  0  0  0  0  0  0  0  0  0  0
   29.3800   28.0000   34.9600 C   0  0  0  0  0  0  0  0  0  0  0  0
   30.6700   28.5000   35.1300 C   0  0  0  0  0  0  0  0  0  0  0  0
   31.5400   28.6100   34.0300 C   0  0  0  0  0  0  0  0  0  0  0  0
   31.0900   28.2200   32.7700 C   0  0  0  0  0  0  0  0  0  0  0  0
   29.8000   27.7000   32.6000 C   0  0  0  0  0  0  0  0  0  0  0  0
   28.9600   27.5500   33.7100 C   0  0  0  0  0  0  0  0  0  0  0  0
   27.6600   27.0300   33.5900 C   0  0  0  0  0  0  0  0  0  0  0  0
   27.1600   26.7400   32.3400 N   0  0  0  0  0  0  0  0  0  0  0  0
   23.1575   26.7014   35.4269 C   0  0  0  0  0  0  0  0  0  0  0  0
   22.4513   26.0787   36.3134 N   0  0  0  0  0  0  0  0  0  0  0  0
   21.0997   26.1249   35.8826 C   0  0  0  0  0  0  0  0  0  0  0  0
   20.9860   26.8012   34.7522 C   0  0  0  0  0  0  0  0  0  0  0  0
   19.7695   26.8338   33.8744 C   0  0  0  0  0  0  0  0  0  0  0  0
   20.1151   27.2030   32.4895 N   0  0  0  0  0  0  0  0  0  0  0  0
   19.0406   27.5815   31.5703 C   0  0  0  0  0  0  0  0  0  0  0  0
   21.4733   27.1206   31.9963 C   0  0  0  0  0  0  0  0  0  0  0  0
   21.7162   27.2960   30.7714 O   0  0  0  0  0  0  0  0  0  0  0  0
   22.6112   26.7975   32.9292 C   0  0  0  0  0  0  0  0  0  0  0  0
   22.3189   27.3379   34.3407 C   0  0  2  0  0  0  0  0  0  0  0  0
   22.3004   28.8920   34.4575 C   0  0  0  0  0  0  0  0  0  0  0  0
   23.6243   29.5050   34.1631 N   0  0  0  0  0  0  0  0  0  0  0  0
   23.6841   30.0103   32.7692 C   0  0  0  0  0  0  0  0  0  0  0  0
   25.1079   29.9079   32.2308 C   0  0  0  0  0  0  0  0  0  0  0  0
   23.9255   30.6089   35.1088 C   0  0  0  0  0  0  0  0  0  0  0  0
   24.5392   30.0735   36.3963 C   0  0  0  0  0  0  0  0  0  0  0  0
  1  2  1  0
  2  3  2  0
  2  4  1  0
  4  5  2  0
  5  6  1  0
  6  7  2  0
  7  8  1  0
  8  9  2  0
  9 10  1  0
 10 11  2  0
 11 12  1  0
 12 13  2  0
 13 14  1  0
  1 15  1  0
 15 16  2  0
 16 17  1  0
 17 18  2  0
 18 19  1  0
 19 20  1  0
 20 21  1  0
 20 22  1  0
 22 23  2  0
 22 24  1  0
 24 25  1  0
 25 26  1  6
 26 27  1  0
 27 28  1  0
 28 29  1  0
 27 30  1  0
 30 31  1  0
 13  4  1  0
 25 15  1  0
 12  7  1  0
 25 18  1  0
M  END
>  <AAScore>  (1) 
5230.830099403605

>  <RootName>  (1) 
./4ZLY/04_DeltaGEst/trajectory_05/rank_00/lead_0498

$$$$
