confid_18
     RDKit          3D

 28 30  0  0  0  0  0  0  0  0999 V2000
   24.4800   26.1000   36.1300 N   0  0  0  0  0  0  0  0  0  0  0  0
   25.2500   26.2500   34.9900 C   0  0  0  0  0  0  0  0  0  0  0  0
   24.7400   25.7600   33.9900 O   0  0  0  0  0  0  0  0  0  0  0  0
   26.5900   26.8900   34.9600 C   0  0  0  0  0  0  0  0  0  0  0  0
   27.0600   27.2400   36.1600 N   0  0  0  0  0  0  0  0  0  0  0  0
   28.3000   27.7100   36.2400 N   0  0  0  0  0  0  0  0  0  0  0  0
   29.0500   27.9600   35.1500 C   0  0  0  0  0  0  0  0  0  0  0  0
   30.3400   28.4900   35.2600 C   0  0  0  0  0  0  0  0  0  0  0  0
   31.1100   28.8200   34.1400 C   0  0  0  0  0  0  0  0  0  0  0  0
   30.5200   28.6700   32.8800 C   0  0  0  0  0  0  0  0  0  0  0  0
   29.2900   28.0200   32.7700 C   0  0  0  0  0  0  0  0  0  0  0  0
   28.5200   27.7100   33.8900 C   0  0  0  0  0  0  0  0  0  0  0  0
   27.2700   27.0800   33.7600 C   0  0  0  0  0  0  0  0  0  0  0  0
   26.7500   26.8800   32.4900 N   0  0  0  0  0  0  0  0  0  0  0  0
   23.5414   25.0343   36.3614 C   0  0  0  0  0  0  0  0  0  0  0  0
   23.5069   23.8100   35.7119 C   0  0  0  0  0  0  0  0  0  0  0  0
   22.4700   23.1118   36.3030 C   0  0  0  0  0  0  0  0  0  0  0  0
   21.9423   21.4925   35.8789 S   0  0  0  0  0  6  0  0  0  0  0  0
   23.1067   20.7363   35.3024 O   0  0  0  0  0  0  0  0  0  0  0  0
   21.4983   20.7848   37.1288 O   0  0  0  0  0  0  0  0  0  0  0  0
   20.6348   21.5153   34.7177 N   0  0  0  0  0  0  0  0  0  0  0  0
   19.3955   22.0057   35.3396 C   0  0  0  0  0  0  0  0  0  0  0  0
   21.0168   22.1852   33.4465 C   0  0  0  0  0  0  0  0  0  0  0  0
   20.3558   21.4574   32.2731 C   0  0  0  0  0  0  0  0  0  0  0  0
   20.6914   23.6927   33.3902 C   0  0  0  0  0  0  0  0  0  0  0  0
   21.9273   23.9144   37.2867 C   0  0  0  0  0  0  0  0  0  0  0  0
   22.5943   25.0804   37.3166 N   0  0  0  0  0  0  0  0  0  0  0  0
   22.3497   26.1109   38.1546 F   0  0  0  0  0  0  0  0  0  0  0  0
  1  2  1  0
  2  3  2  0
  2  4  1  0
  4  5  2  0
  5  6  1  0
  6  7  2  0
  7  8  1  0
  8  9  2  0
  9 10  1  0
 10 11  2  0
 11 12  1  0
 12 13  2  0
 13 14  1  0
  1 15  1  0
 15 16  2  0
 16 17  1  0
 17 18  1  0
 18 19  2  0
 18 20  2  0
 18 21  1  0
 21 22  1  0
 21 23  1  0
 23 24  1  0
 23 25  1  0
 17 26  2  0
 26 27  1  0
 27 28  1  0
 13  4  1  0
 27 15  1  0
 12  7  1  0
M  END
>  <AAScore>  (1) 
515.802883472086

>  <RootName>  (1) 
./4ZLY/04_DeltaGEst/trajectory_00/rank_00/lead_0374

$$$$
