confid_4
     RDKit          3D

 28 31  0  0  0  0  0  0  0  0999 V2000
   24.2000   26.2400   35.6900 N   0  0  0  0  0  0  0  0  0  0  0  0
   24.8500   26.2800   34.4800 C   0  0  0  0  0  0  0  0  0  0  0  0
   24.3100   25.7400   33.5400 O   0  0  0  0  0  0  0  0  0  0  0  0
   26.1800   26.9700   34.4700 C   0  0  0  0  0  0  0  0  0  0  0  0
   26.6500   27.6000   35.5500 N   0  0  0  0  0  0  0  0  0  0  0  0
   27.7900   28.2700   35.6200 N   0  0  0  0  0  0  0  0  0  0  0  0
   28.5400   28.3000   34.5100 C   0  0  0  0  0  0  0  0  0  0  0  0
   29.7700   28.9400   34.5600 C   0  0  0  0  0  0  0  0  0  0  0  0
   30.7000   28.8900   33.5000 C   0  0  0  0  0  0  0  0  0  0  0  0
   30.3700   28.1400   32.3700 C   0  0  0  0  0  0  0  0  0  0  0  0
   29.1200   27.5200   32.2800 C   0  0  0  0  0  0  0  0  0  0  0  0
   28.2100   27.6100   33.3300 C   0  0  0  0  0  0  0  0  0  0  0  0
   26.9700   26.9700   33.3100 C   0  0  0  0  0  0  0  0  0  0  0  0
   26.5300   26.2400   32.2200 N   0  0  0  0  0  0  0  0  0  0  0  0
   22.9960   25.4872   35.9124 C   0  0  0  0  0  0  0  0  0  0  0  0
   21.9433   26.1252   36.3333 N   0  0  0  0  0  0  0  0  0  0  0  0
   20.6692   25.5553   36.6593 C   0  0  0  0  0  0  0  0  0  0  0  0
   20.4932   24.6964   37.6726 C   0  0  0  0  0  0  0  0  0  0  0  0
   19.1170   24.3659   38.1830 C   0  0  0  0  0  0  0  0  0  0  0  0
   19.3567   23.7757   39.4878 N   0  0  0  0  0  0  0  0  0  0  0  0
   20.7572   23.6914   39.7267 C   0  0  0  0  0  0  0  0  0  0  0  0
   21.2438   23.2839   40.8172 O   0  0  0  0  0  0  0  0  0  0  0  0
   21.5793   24.1365   38.5645 C   0  0  1  0  0  0  0  0  0  0  0  0
   22.2785   22.9120   37.9361 C   0  0  0  0  0  0  0  0  0  0  0  0
   23.4434   23.2691   37.0039 C   0  0  0  0  0  0  0  0  0  0  0  0
   23.0030   23.9868   35.7214 C   0  0  0  0  0  0  0  0  0  0  0  0
   18.3062   23.4414   40.4492 C   0  0  0  0  0  0  0  0  0  0  0  0
   18.1781   21.9290   40.6017 C   0  0  0  0  0  0  0  0  0  0  0  0
  1  2  1  0
  2  3  2  0
  2  4  1  0
  4  5  2  0
  5  6  1  0
  6  7  2  0
  7  8  1  0
  8  9  2  0
  9 10  1  0
 10 11  2  0
 11 12  1  0
 12 13  2  0
 13 14  1  0
  1 15  1  0
 15 16  2  0
 16 17  1  0
 17 18  2  0
 18 19  1  0
 19 20  1  0
 20 21  1  0
 21 22  2  0
 21 23  1  0
 23 24  1  6
 24 25  1  0
 25 26  1  0
 20 27  1  0
 27 28  1  0
 13  4  1  0
 26 15  1  0
 12  7  1  0
 23 18  1  0
M  END
>  <AAScore>  (1) 
1918.904352911968

>  <RootName>  (1) 
./4ZLY/04_DeltaGEst/trajectory_04/rank_00/lead_0400

$$$$
