confid_18
     RDKit          3D

 28 31  0  0  0  0  0  0  0  0999 V2000
   24.2000   26.2400   35.6900 N   0  0  0  0  0  0  0  0  0  0  0  0
   24.8500   26.2800   34.4800 C   0  0  0  0  0  0  0  0  0  0  0  0
   24.3100   25.7400   33.5400 O   0  0  0  0  0  0  0  0  0  0  0  0
   26.1800   26.9700   34.4700 C   0  0  0  0  0  0  0  0  0  0  0  0
   26.6500   27.6000   35.5500 N   0  0  0  0  0  0  0  0  0  0  0  0
   27.7900   28.2700   35.6200 N   0  0  0  0  0  0  0  0  0  0  0  0
   28.5400   28.3000   34.5100 C   0  0  0  0  0  0  0  0  0  0  0  0
   29.7700   28.9400   34.5600 C   0  0  0  0  0  0  0  0  0  0  0  0
   30.7000   28.8900   33.5000 C   0  0  0  0  0  0  0  0  0  0  0  0
   30.3700   28.1400   32.3700 C   0  0  0  0  0  0  0  0  0  0  0  0
   29.1200   27.5200   32.2800 C   0  0  0  0  0  0  0  0  0  0  0  0
   28.2100   27.6100   33.3300 C   0  0  0  0  0  0  0  0  0  0  0  0
   26.9700   26.9700   33.3100 C   0  0  0  0  0  0  0  0  0  0  0  0
   26.5300   26.2400   32.2200 N   0  0  0  0  0  0  0  0  0  0  0  0
   23.2358   25.2360   36.0739 C   0  0  0  0  0  0  0  0  0  0  0  0
   23.0689   24.1803   35.3257 N   0  0  0  0  0  0  0  0  0  0  0  0
   22.1799   23.0965   35.6011 C   0  0  0  0  0  0  0  0  0  0  0  0
   20.8873   23.0463   35.2048 C   0  0  0  0  0  0  0  0  0  0  0  0
   20.1614   21.7449   35.4798 C   0  0  0  0  0  0  0  0  0  0  0  0
   18.7206   21.8195   35.2182 N   0  0  0  0  0  0  0  0  0  0  0  0
   18.4582   22.4162   33.9054 C   0  0  0  0  0  0  0  0  0  0  0  0
   18.9097   23.8801   33.8368 C   0  0  0  0  0  0  0  0  0  0  0  0
   20.1776   24.1380   34.5422 N   0  0  0  0  0  0  0  0  0  0  0  0
   20.6091   25.5511   34.5626 C   0  0  0  0  0  0  0  0  0  0  0  0
   20.4056   26.2407   35.9321 C   0  0  0  0  0  0  0  0  0  0  0  0
   20.9167   25.4908   37.1788 C   0  0  0  0  0  0  0  0  0  0  0  0
   22.4494   25.4378   37.3524 C   0  0  0  0  0  0  0  0  0  0  0  0
   17.9048   22.7007   36.4966 Cl  0  0  0  0  0  0  0  0  0  0  0  0
  1  2  1  0
  2  3  2  0
  2  4  1  0
  4  5  2  0
  5  6  1  0
  6  7  2  0
  7  8  1  0
  8  9  2  0
  9 10  1  0
 10 11  2  0
 11 12  1  0
 12 13  2  0
 13 14  1  0
  1 15  1  0
 15 16  2  0
 16 17  1  0
 17 18  2  0
 18 19  1  0
 19 20  1  0
 20 21  1  0
 21 22  1  0
 22 23  1  0
 23 24  1  0
 24 25  1  0
 25 26  1  0
 26 27  1  0
 20 28  1  0
 13  4  1  0
 27 15  1  0
 12  7  1  0
 23 18  1  0
M  END
>  <AAScore>  (1) 
6045.828617771952

>  <RootName>  (1) 
./4ZLY/04_DeltaGEst/trajectory_04/rank_00/lead_0468

$$$$
