confid_8
     RDKit          3D

 28 31  0  0  0  0  0  0  0  0999 V2000
   24.6900   26.1200   35.5300 N   0  0  0  0  0  0  0  0  0  0  0  0
   25.6600   25.6700   34.6600 C   0  0  0  0  0  0  0  0  0  0  0  0
   25.2400   25.0100   33.7200 O   0  0  0  0  0  0  0  0  0  0  0  0
   27.0300   26.2200   34.8800 C   0  0  0  0  0  0  0  0  0  0  0  0
   27.3500   26.7300   36.0700 N   0  0  0  0  0  0  0  0  0  0  0  0
   28.5700   27.1800   36.3300 N   0  0  0  0  0  0  0  0  0  0  0  0
   29.5300   27.1100   35.3900 C   0  0  0  0  0  0  0  0  0  0  0  0
   30.8300   27.5700   35.6500 C   0  0  0  0  0  0  0  0  0  0  0  0
   31.8500   27.5400   34.6900 C   0  0  0  0  0  0  0  0  0  0  0  0
   31.5100   27.1200   33.4000 C   0  0  0  0  0  0  0  0  0  0  0  0
   30.2200   26.6300   33.1100 C   0  0  0  0  0  0  0  0  0  0  0  0
   29.2400   26.6600   34.1000 C   0  0  0  0  0  0  0  0  0  0  0  0
   27.9300   26.2600   33.8100 C   0  0  0  0  0  0  0  0  0  0  0  0
   27.5200   25.7100   32.6100 N   0  0  0  0  0  0  0  0  0  0  0  0
   23.5522   25.3340   35.9393 C   0  0  0  0  0  0  0  0  0  0  0  0
   23.4398   24.0407   35.5464 N   0  0  0  0  0  0  0  0  0  0  0  0
   22.4024   23.2564   35.9239 C   0  0  0  0  0  0  0  0  0  0  0  0
   21.3737   23.7520   36.7457 C   0  0  0  0  0  0  0  0  0  0  0  0
   20.2810   22.7468   37.0722 C   0  0  0  0  0  0  0  0  0  0  0  0
   19.0521   23.3334   37.6297 N   0  0  0  0  0  0  0  0  0  0  0  0
   17.9927   22.3100   37.6816 C   0  0  0  0  0  0  0  0  0  0  0  0
   19.3105   23.8723   38.9734 C   0  0  0  0  0  0  0  0  0  0  0  0
   19.5991   25.3163   38.8325 C   0  0  0  0  0  0  0  0  0  0  0  0
   20.5289   25.7779   38.0580 N   0  0  0  0  0  0  0  0  0  0  0  0
   21.4820   25.1002   37.2126 C   0  0  0  0  0  0  0  0  0  0  0  0
   22.5807   25.8781   36.7930 C   0  0  0  0  0  0  0  0  0  0  0  0
   22.7066   27.2035   37.2207 O   0  0  0  0  0  0  0  0  0  0  0  0
   23.1571   27.5277   38.5308 C   0  0  0  0  0  0  0  0  0  0  0  0
  1  2  1  0
  2  3  2  0
  2  4  1  0
  4  5  2  0
  5  6  1  0
  6  7  2  0
  7  8  1  0
  8  9  2  0
  9 10  1  0
 10 11  2  0
 11 12  1  0
 12 13  2  0
 13 14  1  0
  1 15  1  0
 15 16  2  0
 16 17  1  0
 17 18  2  0
 18 19  1  0
 19 20  1  0
 20 21  1  0
 20 22  1  0
 22 23  1  0
 23 24  2  0
 24 25  1  0
 25 26  2  0
 26 27  1  0
 27 28  1  0
 13  4  1  0
 26 15  1  0
 12  7  1  0
 25 18  1  0
M  END
>  <AAScore>  (1) 
952.3279842448956

>  <RootName>  (1) 
./4ZLY/04_DeltaGEst/trajectory_02/rank_00/lead_0490

$$$$
