confid_0
     RDKit          3D

 27 30  0  0  0  0  0  0  0  0999 V2000
   24.5500   26.3900   36.2500 N   0  0  0  0  0  0  0  0  0  0  0  0
   25.6000   26.1300   35.4000 C   0  0  0  0  0  0  0  0  0  0  0  0
   25.4300   25.4300   34.4200 O   0  0  0  0  0  0  0  0  0  0  0  0
   26.9800   26.6300   35.7100 C   0  0  0  0  0  0  0  0  0  0  0  0
   27.3200   26.8200   36.9800 N   0  0  0  0  0  0  0  0  0  0  0  0
   28.4700   27.4000   37.3100 N   0  0  0  0  0  0  0  0  0  0  0  0
   29.4000   27.6300   36.3700 C   0  0  0  0  0  0  0  0  0  0  0  0
   30.6600   28.0500   36.8000 C   0  0  0  0  0  0  0  0  0  0  0  0
   31.5700   28.3600   35.7800 C   0  0  0  0  0  0  0  0  0  0  0  0
   31.3700   28.1000   34.4300 C   0  0  0  0  0  0  0  0  0  0  0  0
   30.1200   27.5900   34.0500 C   0  0  0  0  0  0  0  0  0  0  0  0
   29.1500   27.3400   35.0300 C   0  0  0  0  0  0  0  0  0  0  0  0
   27.8800   26.8900   34.6600 C   0  0  0  0  0  0  0  0  0  0  0  0
   27.4800   26.6100   33.3700 N   0  0  0  0  0  0  0  0  0  0  0  0
   30.9878   28.2827   38.1913 N   0  0  0  0  0  0  0  0  0  0  0  0
   32.3004   27.8163   38.6813 C   0  0  0  0  0  0  0  0  0  0  0  0
   32.4717   27.8877   40.2071 C   0  0  0  0  0  0  0  0  0  0  0  0
   31.6428   26.8541   40.9950 C   0  0  0  0  0  0  0  0  0  0  0  0
   30.1792   26.8679   40.7614 N   0  0  0  0  0  0  0  0  0  0  0  0
   29.7100   25.8504   39.8039 C   0  0  0  0  0  0  0  0  0  0  0  0
   29.7456   24.4580   40.4483 C   0  0  0  0  0  0  0  0  0  0  0  0
   30.8156   23.4993   39.9436 C   0  0  0  0  0  0  0  0  0  0  0  0
   29.3739   23.3305   39.4955 C   0  0  0  0  0  0  0  0  0  0  0  0
   29.5087   28.4566   40.4504 S   0  0  0  0  0  6  0  0  0  0  0  0
   28.0155   28.3518   40.3088 O   0  0  0  0  0  0  0  0  0  0  0  0
   29.8070   29.3434   41.6268 O   0  0  0  0  0  0  0  0  0  0  0  0
   30.1775   29.2271   38.9734 C   0  0  0  0  0  0  0  0  0  0  0  0
  1  2  1  0
  2  3  2  0
  2  4  1  0
  4  5  2  0
  5  6  1  0
  6  7  2  0
  7  8  1  0
  8  9  2  0
  9 10  1  0
 10 11  2  0
 11 12  1  0
 12 13  2  0
 13 14  1  0
  8 15  1  0
 15 16  1  0
 16 17  1  0
 17 18  1  0
 18 19  1  0
 19 20  1  0
 20 21  1  0
 21 22  1  0
 22 23  1  0
 19 24  1  0
 24 25  2  0
 24 26  2  0
 24 27  1  0
 13  4  1  0
 27 15  1  0
 12  7  1  0
 23 21  1  0
M  END
>  <AAScore>  (1) 
87.59580480814543

>  <RootName>  (1) 
./4ZLY/04_DeltaGEst/trajectory_01/rank_01/lead_0104

$$$$
