confid_14
     RDKit          3D

 27 30  0  0  0  0  0  0  0  0999 V2000
   25.3300   26.2600   34.7600 N   0  0  0  0  0  0  0  0  0  0  0  0
   26.1200   25.9200   33.6900 C   0  0  0  0  0  0  0  0  0  0  0  0
   25.6300   25.1100   32.9400 O   0  0  0  0  0  0  0  0  0  0  0  0
   27.5200   26.3800   33.4600 C   0  0  0  0  0  0  0  0  0  0  0  0
   28.1600   26.6300   34.6100 N   0  0  0  0  0  0  0  0  0  0  0  0
   29.4800   26.8500   34.5700 N   0  0  0  0  0  0  0  0  0  0  0  0
   30.1900   26.7800   33.4400 C   0  0  0  0  0  0  0  0  0  0  0  0
   31.5600   27.0500   33.5000 C   0  0  0  0  0  0  0  0  0  0  0  0
   32.2700   27.2400   32.3100 C   0  0  0  0  0  0  0  0  0  0  0  0
   31.6100   27.2500   31.0800 C   0  0  0  0  0  0  0  0  0  0  0  0
   30.2700   26.8700   31.0600 C   0  0  0  0  0  0  0  0  0  0  0  0
   29.5100   26.6900   32.2300 C   0  0  0  0  0  0  0  0  0  0  0  0
   28.1400   26.4100   32.2000 C   0  0  0  0  0  0  0  0  0  0  0  0
   27.4300   26.1300   31.0500 N   0  0  0  0  0  0  0  0  0  0  0  0
   24.2216   25.4968   35.2685 C   0  0  0  0  0  0  0  0  0  0  0  0
   23.2982   26.0170   36.1023 N   0  0  0  0  0  0  0  0  0  0  0  0
   22.4871   24.9740   36.3833 C   0  0  0  0  0  0  0  0  0  0  0  0
   21.3082   25.1008   37.3163 C   0  0  0  0  0  0  0  0  0  0  0  0
   20.1666   24.0956   37.0670 C   0  0  0  0  0  0  0  0  0  0  0  0
   20.0955   23.7171   35.6351 N   0  0  0  0  0  0  0  0  0  0  0  0
   20.8617   22.4854   35.3257 C   0  0  0  0  0  0  0  0  0  0  0  0
   22.2883   22.5035   35.9018 C   0  0  0  0  0  0  0  0  0  0  0  0
   22.8870   23.8302   35.7814 N   0  0  0  0  0  0  0  0  0  0  0  0
   23.9848   24.1492   35.0762 C   0  0  0  0  0  0  0  0  0  0  0  0
   18.7262   23.6807   35.0555 C   0  0  0  0  0  0  0  0  0  0  0  0
   18.2028   25.1045   34.8317 C   0  0  0  0  0  0  0  0  0  0  0  0
   17.7216   22.8423   35.8729 C   0  0  0  0  0  0  0  0  0  0  0  0
  1  2  1  0
  2  3  2  0
  2  4  1  0
  4  5  2  0
  5  6  1  0
  6  7  2  0
  7  8  1  0
  8  9  2  0
  9 10  1  0
 10 11  2  0
 11 12  1  0
 12 13  2  0
 13 14  1  0
  1 15  1  0
 15 16  1  0
 16 17  2  0
 17 18  1  0
 18 19  1  0
 19 20  1  0
 20 21  1  0
 21 22  1  0
 22 23  1  0
 23 24  1  0
 20 25  1  0
 25 26  1  0
 25 27  1  0
 13  4  1  0
 24 15  2  0
 12  7  1  0
 23 17  1  0
M  END
>  <AAScore>  (1) 
17566.34126199415

>  <RootName>  (1) 
./4ZLY/04_DeltaGEst/trajectory_03/rank_00/lead_0468

$$$$
