confid_12
     RDKit          3D

 27 30  0  0  0  0  0  0  0  0999 V2000
   24.5700   26.8800   35.5900 N   0  0  0  0  0  0  0  0  0  0  0  0
   25.5000   26.4000   34.6900 C   0  0  0  0  0  0  0  0  0  0  0  0
   25.1700   25.5200   33.9100 O   0  0  0  0  0  0  0  0  0  0  0  0
   26.8400   27.0200   34.7400 C   0  0  0  0  0  0  0  0  0  0  0  0
   27.3800   27.2800   35.9400 N   0  0  0  0  0  0  0  0  0  0  0  0
   28.6200   27.7400   36.0300 N   0  0  0  0  0  0  0  0  0  0  0  0
   29.3800   28.0000   34.9600 C   0  0  0  0  0  0  0  0  0  0  0  0
   30.6700   28.5000   35.1300 C   0  0  0  0  0  0  0  0  0  0  0  0
   31.5400   28.6100   34.0300 C   0  0  0  0  0  0  0  0  0  0  0  0
   31.0900   28.2200   32.7700 C   0  0  0  0  0  0  0  0  0  0  0  0
   29.8000   27.7000   32.6000 C   0  0  0  0  0  0  0  0  0  0  0  0
   28.9600   27.5500   33.7100 C   0  0  0  0  0  0  0  0  0  0  0  0
   27.6600   27.0300   33.5900 C   0  0  0  0  0  0  0  0  0  0  0  0
   27.1600   26.7400   32.3400 N   0  0  0  0  0  0  0  0  0  0  0  0
   23.1465   26.7269   35.4531 C   0  0  0  0  0  0  0  0  0  0  0  0
   22.3837   26.6487   36.5760 N   0  0  0  0  0  0  0  0  0  0  0  0
   21.0343   26.5124   36.5248 C   0  0  0  0  0  0  0  0  0  0  0  0
   20.3785   26.4583   35.2892 C   0  0  0  0  0  0  0  0  0  0  0  0
   18.8908   26.2690   35.2244 C   0  0  0  0  0  0  0  0  0  0  0  0
   18.5265   25.4824   33.9675 C   0  0  0  0  0  0  0  0  0  0  0  0
   19.0269   26.2079   32.7137 C   0  0  0  0  0  0  0  0  0  0  0  0
   20.4416   26.6155   32.8197 N   0  0  0  0  0  0  0  0  0  0  0  0
   21.0382   27.2500   31.6694 C   0  0  0  0  0  0  0  0  0  0  0  0
   21.7235   28.2991   31.8112 O   0  0  0  0  0  0  0  0  0  0  0  0
   20.7945   26.7268   30.2880 C   0  0  0  0  0  0  0  0  0  0  0  0
   21.1205   26.6172   34.1036 C   0  0  0  0  0  0  0  0  0  0  0  0
   22.5212   26.7234   34.1939 C   0  0  0  0  0  0  0  0  0  0  0  0
  1  2  1  0
  2  3  2  0
  2  4  1  0
  4  5  2  0
  5  6  1  0
  6  7  2  0
  7  8  1  0
  8  9  2  0
  9 10  1  0
 10 11  2  0
 11 12  1  0
 12 13  2  0
 13 14  1  0
  1 15  1  0
 15 16  2  0
 16 17  1  0
 17 18  2  0
 18 19  1  0
 19 20  1  0
 20 21  1  0
 21 22  1  0
 22 23  1  0
 23 24  2  0
 23 25  1  0
 22 26  1  0
 26 27  2  0
 13  4  1  0
 27 15  1  0
 12  7  1  0
 26 18  1  0
M  END
>  <AAScore>  (1) 
545.2829013668127

>  <RootName>  (1) 
./4ZLY/04_DeltaGEst/trajectory_05/rank_00/lead_0017

$$$$
