confid_1
     RDKit          3D

 27 31  0  0  0  0  0  0  0  0999 V2000
   25.3300   26.2600   34.7600 N   0  0  0  0  0  0  0  0  0  0  0  0
   26.1200   25.9200   33.6900 C   0  0  0  0  0  0  0  0  0  0  0  0
   25.6300   25.1100   32.9400 O   0  0  0  0  0  0  0  0  0  0  0  0
   27.5200   26.3800   33.4600 C   0  0  0  0  0  0  0  0  0  0  0  0
   28.1600   26.6300   34.6100 N   0  0  0  0  0  0  0  0  0  0  0  0
   29.4800   26.8500   34.5700 N   0  0  0  0  0  0  0  0  0  0  0  0
   30.1900   26.7800   33.4400 C   0  0  0  0  0  0  0  0  0  0  0  0
   31.5600   27.0500   33.5000 C   0  0  0  0  0  0  0  0  0  0  0  0
   32.2700   27.2400   32.3100 C   0  0  0  0  0  0  0  0  0  0  0  0
   31.6100   27.2500   31.0800 C   0  0  0  0  0  0  0  0  0  0  0  0
   30.2700   26.8700   31.0600 C   0  0  0  0  0  0  0  0  0  0  0  0
   29.5100   26.6900   32.2300 C   0  0  0  0  0  0  0  0  0  0  0  0
   28.1400   26.4100   32.2000 C   0  0  0  0  0  0  0  0  0  0  0  0
   27.4300   26.1300   31.0500 N   0  0  0  0  0  0  0  0  0  0  0  0
   27.4589   24.7806   30.4693 C   0  0  0  0  0  0  0  0  0  0  0  0
   27.9891   24.8172   29.0080 C   0  0  1  0  0  0  0  0  0  0  0  0
   27.9125   26.0933   28.3821 O   0  0  0  0  0  0  0  0  0  0  0  0
   26.5788   26.5470   28.1935 C   0  0  0  0  0  0  0  0  0  0  0  0
   25.8216   26.6297   29.3898 O   0  0  0  0  0  0  0  0  0  0  0  0
   26.5898   27.1714   30.4467 C   0  0  0  0  0  0  0  0  0  0  0  0
   29.3411   24.2689   28.8509 C   0  0  0  0  0  0  0  0  0  0  0  0
   28.7877   23.1719   28.0101 C   0  0  0  0  0  0  0  0  0  0  0  0
   29.0702   22.0337   27.2824 C   0  0  0  0  0  0  0  0  0  0  0  0
   27.9526   21.4016   26.6836 C   0  0  0  0  0  0  0  0  0  0  0  0
   26.6270   21.9185   26.8354 C   0  0  0  0  0  0  0  0  0  0  0  0
   26.3673   23.0893   27.5896 C   0  0  0  0  0  0  0  0  0  0  0  0
   27.4753   23.6903   28.1563 C   0  0  0  0  0  0  0  0  0  0  0  0
  1  2  1  0
  2  3  2  0
  2  4  1  0
  4  5  2  0
  5  6  1  0
  6  7  2  0
  7  8  1  0
  8  9  2  0
  9 10  1  0
 10 11  2  0
 11 12  1  0
 12 13  2  0
 13 14  1  0
 14 15  1  0
 16 15  1  1
 16 17  1  0
 17 18  1  0
 18 19  1  0
 19 20  1  0
 16 21  1  0
 21 22  1  0
 22 23  2  0
 23 24  1  0
 24 25  2  0
 25 26  1  0
 26 27  2  0
 13  4  1  0
 20 14  1  0
 27 22  1  0
 12  7  1  0
 27 16  1  0
M  END
>  <AAScore>  (1) 
25.201821308225792

>  <RootName>  (1) 
./4ZLY/04_DeltaGEst/trajectory_03/rank_01/lead_0496

$$$$
