confid_17
     RDKit          3D

 30 33  0  0  0  0  0  0  0  0999 V2000
   24.5500   26.3900   36.2500 N   0  0  0  0  0  0  0  0  0  0  0  0
   25.6000   26.1300   35.4000 C   0  0  0  0  0  0  0  0  0  0  0  0
   25.4300   25.4300   34.4200 O   0  0  0  0  0  0  0  0  0  0  0  0
   26.9800   26.6300   35.7100 C   0  0  0  0  0  0  0  0  0  0  0  0
   27.3200   26.8200   36.9800 N   0  0  0  0  0  0  0  0  0  0  0  0
   28.4700   27.4000   37.3100 N   0  0  0  0  0  0  0  0  0  0  0  0
   29.4000   27.6300   36.3700 C   0  0  0  0  0  0  0  0  0  0  0  0
   30.6600   28.0500   36.8000 C   0  0  0  0  0  0  0  0  0  0  0  0
   31.5700   28.3600   35.7800 C   0  0  0  0  0  0  0  0  0  0  0  0
   31.3700   28.1000   34.4300 C   0  0  0  0  0  0  0  0  0  0  0  0
   30.1200   27.5900   34.0500 C   0  0  0  0  0  0  0  0  0  0  0  0
   29.1500   27.3400   35.0300 C   0  0  0  0  0  0  0  0  0  0  0  0
   27.8800   26.8900   34.6600 C   0  0  0  0  0  0  0  0  0  0  0  0
   27.4800   26.6100   33.3700 N   0  0  0  0  0  0  0  0  0  0  0  0
   23.1802   25.8790   36.0861 C   0  0  0  0  0  0  0  0  0  0  0  0
   22.5051   26.4952   34.8473 C   0  0  0  0  0  0  0  0  0  0  0  0
   21.1371   25.8494   34.6055 C   0  0  0  0  0  0  0  0  0  0  0  0
   21.2371   24.3831   34.5247 N   0  0  0  0  0  0  0  0  0  0  0  0
   20.1124   23.6520   33.9948 C   0  0  0  0  0  0  0  0  0  0  0  0
   18.9427   24.0811   34.1969 O   0  0  0  0  0  0  0  0  0  0  0  0
   20.2947   22.4590   33.0935 C   0  0  0  0  0  0  0  0  0  0  0  0
   20.6576   22.9171   31.6760 C   0  0  0  0  0  0  0  0  0  0  0  0
   20.9073   21.7412   30.8096 N   0  0  0  0  0  0  0  0  0  0  0  0
   19.6626   21.2077   30.2018 C   0  0  0  0  0  0  0  0  0  0  0  0
   19.3756   21.8142   28.8109 C   0  0  0  0  0  0  0  0  0  0  0  0
   19.9605   23.0935   28.6960 O   0  0  0  0  0  0  0  0  0  0  0  0
   21.3748   22.9828   28.6838 C   0  0  0  0  0  0  0  0  0  0  0  0
   21.9193   22.0228   29.7710 C   0  0  0  0  0  0  0  0  0  0  0  0
   22.5015   23.7073   34.8576 C   0  0  0  0  0  0  0  0  0  0  0  0
   23.1385   24.3268   36.1102 C   0  0  0  0  0  0  0  0  0  0  0  0
  1  2  1  0
  2  3  2  0
  2  4  1  0
  4  5  2  0
  5  6  1  0
  6  7  2  0
  7  8  1  0
  8  9  2  0
  9 10  1  0
 10 11  2  0
 11 12  1  0
 12 13  2  0
 13 14  1  0
  1 15  1  0
 15 16  1  0
 16 17  1  0
 17 18  1  0
 18 19  1  0
 19 20  2  0
 19 21  1  0
 21 22  1  0
 22 23  1  0
 23 24  1  0
 24 25  1  0
 25 26  1  0
 26 27  1  0
 27 28  1  0
 18 29  1  0
 29 30  1  0
 13  4  1  0
 30 15  1  0
 12  7  1  0
 28 23  1  0
M  END
>  <AAScore>  (1) 
531.7246040522107

>  <RootName>  (1) 
./4ZLY/04_DeltaGEst/trajectory_01/rank_00/lead_0122

$$$$
