confid_8
     RDKit          3D

 27 30  0  0  0  0  0  0  0  0999 V2000
   25.3300   26.2600   34.7600 N   0  0  0  0  0  0  0  0  0  0  0  0
   26.1200   25.9200   33.6900 C   0  0  0  0  0  0  0  0  0  0  0  0
   25.6300   25.1100   32.9400 O   0  0  0  0  0  0  0  0  0  0  0  0
   27.5200   26.3800   33.4600 C   0  0  0  0  0  0  0  0  0  0  0  0
   28.1600   26.6300   34.6100 N   0  0  0  0  0  0  0  0  0  0  0  0
   29.4800   26.8500   34.5700 N   0  0  0  0  0  0  0  0  0  0  0  0
   30.1900   26.7800   33.4400 C   0  0  0  0  0  0  0  0  0  0  0  0
   31.5600   27.0500   33.5000 C   0  0  0  0  0  0  0  0  0  0  0  0
   32.2700   27.2400   32.3100 C   0  0  0  0  0  0  0  0  0  0  0  0
   31.6100   27.2500   31.0800 C   0  0  0  0  0  0  0  0  0  0  0  0
   30.2700   26.8700   31.0600 C   0  0  0  0  0  0  0  0  0  0  0  0
   29.5100   26.6900   32.2300 C   0  0  0  0  0  0  0  0  0  0  0  0
   28.1400   26.4100   32.2000 C   0  0  0  0  0  0  0  0  0  0  0  0
   27.4300   26.1300   31.0500 N   0  0  0  0  0  0  0  0  0  0  0  0
   24.2374   25.4815   35.2816 C   0  0  0  0  0  0  0  0  0  0  0  0
   23.1941   26.1294   35.8897 N   0  0  0  0  0  0  0  0  0  0  0  0
   22.1358   25.4639   36.4372 C   0  0  0  0  0  0  0  0  0  0  0  0
   22.1220   24.0735   36.3871 C   0  0  0  0  0  0  0  0  0  0  0  0
   21.0880   23.1237   36.9204 C   0  0  0  0  0  0  0  0  0  0  0  0
   21.6536   21.8070   36.6070 N   0  0  0  0  0  0  0  0  0  0  0  0
   22.8896   21.9921   35.9214 C   0  0  0  0  0  0  0  0  0  0  0  0
   23.6091   21.0574   35.4794 O   0  0  0  0  0  0  0  0  0  0  0  0
   23.1664   23.4007   35.8009 C   0  0  0  0  0  0  0  0  0  0  0  0
   24.2510   24.0688   35.2419 C   0  0  0  0  0  0  0  0  0  0  0  0
   20.9942   20.5273   36.8614 C   0  0  0  0  0  0  0  0  0  0  0  0
   21.7592   19.7063   37.9062 C   0  0  0  0  0  0  0  0  0  0  0  0
   21.8019   20.4020   39.2654 C   0  0  0  0  0  0  0  0  0  0  0  0
  1  2  1  0
  2  3  2  0
  2  4  1  0
  4  5  2  0
  5  6  1  0
  6  7  2  0
  7  8  1  0
  8  9  2  0
  9 10  1  0
 10 11  2  0
 11 12  1  0
 12 13  2  0
 13 14  1  0
  1 15  1  0
 15 16  2  0
 16 17  1  0
 17 18  2  0
 18 19  1  0
 19 20  1  0
 20 21  1  0
 21 22  2  0
 21 23  1  0
 23 24  2  0
 20 25  1  0
 25 26  1  0
 26 27  1  0
 13  4  1  0
 24 15  1  0
 12  7  1  0
 23 18  1  0
M  END
>  <AAScore>  (1) 
4669.200682005125

>  <RootName>  (1) 
./4ZLY/04_DeltaGEst/trajectory_03/rank_00/lead_0206

$$$$
