confid_18
     RDKit          3D

 28 31  0  0  0  0  0  0  0  0999 V2000
   24.2000   26.2400   35.6900 N   0  0  0  0  0  0  0  0  0  0  0  0
   24.8500   26.2800   34.4800 C   0  0  0  0  0  0  0  0  0  0  0  0
   24.3100   25.7400   33.5400 O   0  0  0  0  0  0  0  0  0  0  0  0
   26.1800   26.9700   34.4700 C   0  0  0  0  0  0  0  0  0  0  0  0
   26.6500   27.6000   35.5500 N   0  0  0  0  0  0  0  0  0  0  0  0
   27.7900   28.2700   35.6200 N   0  0  0  0  0  0  0  0  0  0  0  0
   28.5400   28.3000   34.5100 C   0  0  0  0  0  0  0  0  0  0  0  0
   29.7700   28.9400   34.5600 C   0  0  0  0  0  0  0  0  0  0  0  0
   30.7000   28.8900   33.5000 C   0  0  0  0  0  0  0  0  0  0  0  0
   30.3700   28.1400   32.3700 C   0  0  0  0  0  0  0  0  0  0  0  0
   29.1200   27.5200   32.2800 C   0  0  0  0  0  0  0  0  0  0  0  0
   28.2100   27.6100   33.3300 C   0  0  0  0  0  0  0  0  0  0  0  0
   26.9700   26.9700   33.3100 C   0  0  0  0  0  0  0  0  0  0  0  0
   26.5300   26.2400   32.2200 N   0  0  0  0  0  0  0  0  0  0  0  0
   22.9575   25.5499   35.8870 C   0  0  0  0  0  0  0  0  0  0  0  0
   21.8430   26.1862   36.3108 N   0  0  0  0  0  0  0  0  0  0  0  0
   20.9363   25.1994   36.4602 C   0  0  0  0  0  0  0  0  0  0  0  0
   21.5201   23.9884   36.1452 C   0  0  0  0  0  0  0  0  0  0  0  0
   20.8711   22.6426   36.2867 C   0  0  0  0  0  0  0  0  0  0  0  0
   21.0049   21.9103   35.0078 N   0  0  0  0  0  0  0  0  0  0  0  0
   21.7350   20.6257   35.1264 C   0  0  0  0  0  0  0  0  0  0  0  0
   22.6617   20.4266   33.9130 C   0  0  0  0  0  0  0  0  0  0  0  0
   23.9251   21.1965   33.9712 N   0  0  0  0  0  0  0  0  0  0  0  0
   24.9888   20.5677   34.7703 C   0  0  0  0  0  0  0  0  0  0  0  0
   23.7992   22.6674   34.0985 C   0  0  0  0  0  0  0  0  0  0  0  0
   23.8421   23.1957   35.5541 C   0  0  0  0  0  0  0  0  0  0  0  0
   22.8049   24.2079   35.7891 N   0  0  0  0  0  0  0  0  0  0  0  0
   19.7011   21.7373   34.3453 C   0  0  0  0  0  0  0  0  0  0  0  0
  1  2  1  0
  2  3  2  0
  2  4  1  0
  4  5  2  0
  5  6  1  0
  6  7  2  0
  7  8  1  0
  8  9  2  0
  9 10  1  0
 10 11  2  0
 11 12  1  0
 12 13  2  0
 13 14  1  0
  1 15  1  0
 15 16  2  0
 16 17  1  0
 17 18  2  0
 18 19  1  0
 19 20  1  0
 20 21  1  0
 21 22  1  0
 22 23  1  0
 23 24  1  0
 23 25  1  0
 25 26  1  0
 26 27  1  0
 20 28  1  0
 13  4  1  0
 27 15  1  0
 12  7  1  0
 27 18  1  0
M  END
>  <AAScore>  (1) 
962.1457159639028

>  <RootName>  (1) 
./4ZLY/04_DeltaGEst/trajectory_04/rank_00/lead_0079

$$$$
