confid_7
     RDKit          3D

 27 30  0  0  0  0  0  0  0  0999 V2000
   24.5700   26.8800   35.5900 N   0  0  0  0  0  0  0  0  0  0  0  0
   25.5000   26.4000   34.6900 C   0  0  0  0  0  0  0  0  0  0  0  0
   25.1700   25.5200   33.9100 O   0  0  0  0  0  0  0  0  0  0  0  0
   26.8400   27.0200   34.7400 C   0  0  0  0  0  0  0  0  0  0  0  0
   27.3800   27.2800   35.9400 N   0  0  0  0  0  0  0  0  0  0  0  0
   28.6200   27.7400   36.0300 N   0  0  0  0  0  0  0  0  0  0  0  0
   29.3800   28.0000   34.9600 C   0  0  0  0  0  0  0  0  0  0  0  0
   30.6700   28.5000   35.1300 C   0  0  0  0  0  0  0  0  0  0  0  0
   31.5400   28.6100   34.0300 C   0  0  0  0  0  0  0  0  0  0  0  0
   31.0900   28.2200   32.7700 C   0  0  0  0  0  0  0  0  0  0  0  0
   29.8000   27.7000   32.6000 C   0  0  0  0  0  0  0  0  0  0  0  0
   28.9600   27.5500   33.7100 C   0  0  0  0  0  0  0  0  0  0  0  0
   27.6600   27.0300   33.5900 C   0  0  0  0  0  0  0  0  0  0  0  0
   27.1600   26.7400   32.3400 N   0  0  0  0  0  0  0  0  0  0  0  0
   23.1480   26.7035   35.4641 C   0  0  0  0  0  0  0  0  0  0  0  0
   22.3858   26.6364   36.5994 N   0  0  0  0  0  0  0  0  0  0  0  0
   21.0292   26.4989   36.5606 C   0  0  0  0  0  0  0  0  0  0  0  0
   20.3949   26.4321   35.3221 C   0  0  0  0  0  0  0  0  0  0  0  0
   18.9294   26.3192   35.0508 C   0  0  0  0  0  0  0  0  0  0  0  0
   18.8167   26.2637   33.4881 C   0  0  1  0  0  0  0  0  0  0  0  0
   18.3339   24.8812   32.9884 C   0  0  0  0  0  0  0  0  0  0  0  0
   18.0541   27.3496   32.9715 O   0  0  0  0  0  0  0  0  0  0  0  0
   16.6675   27.2145   33.2191 C   0  0  0  0  0  0  0  0  0  0  0  0
   20.2405   26.4531   33.0430 C   0  0  0  0  0  0  0  0  0  0  0  0
   20.6104   26.5382   31.8412 O   0  0  0  0  0  0  0  0  0  0  0  0
   21.1299   26.5217   34.1750 C   0  0  0  0  0  0  0  0  0  0  0  0
   22.5155   26.6659   34.2017 C   0  0  0  0  0  0  0  0  0  0  0  0
  1  2  1  0
  2  3  2  0
  2  4  1  0
  4  5  2  0
  5  6  1  0
  6  7  2  0
  7  8  1  0
  8  9  2  0
  9 10  1  0
 10 11  2  0
 11 12  1  0
 12 13  2  0
 13 14  1  0
  1 15  1  0
 15 16  2  0
 16 17  1  0
 17 18  2  0
 18 19  1  0
 19 20  1  0
 20 21  1  1
 20 22  1  0
 22 23  1  0
 20 24  1  0
 24 25  2  0
 24 26  1  0
 26 27  2  0
 13  4  1  0
 27 15  1  0
 12  7  1  0
 26 18  1  0
M  END
>  <AAScore>  (1) 
5509.777259267796

>  <RootName>  (1) 
./4ZLY/04_DeltaGEst/trajectory_05/rank_00/lead_0481

$$$$
