confid_9
     RDKit          3D

 28 31  0  0  0  0  0  0  0  0999 V2000
   24.6900   26.1200   35.5300 N   0  0  0  0  0  0  0  0  0  0  0  0
   25.6600   25.6700   34.6600 C   0  0  0  0  0  0  0  0  0  0  0  0
   25.2400   25.0100   33.7200 O   0  0  0  0  0  0  0  0  0  0  0  0
   27.0300   26.2200   34.8800 C   0  0  0  0  0  0  0  0  0  0  0  0
   27.3500   26.7300   36.0700 N   0  0  0  0  0  0  0  0  0  0  0  0
   28.5700   27.1800   36.3300 N   0  0  0  0  0  0  0  0  0  0  0  0
   29.5300   27.1100   35.3900 C   0  0  0  0  0  0  0  0  0  0  0  0
   30.8300   27.5700   35.6500 C   0  0  0  0  0  0  0  0  0  0  0  0
   31.8500   27.5400   34.6900 C   0  0  0  0  0  0  0  0  0  0  0  0
   31.5100   27.1200   33.4000 C   0  0  0  0  0  0  0  0  0  0  0  0
   30.2200   26.6300   33.1100 C   0  0  0  0  0  0  0  0  0  0  0  0
   29.2400   26.6600   34.1000 C   0  0  0  0  0  0  0  0  0  0  0  0
   27.9300   26.2600   33.8100 C   0  0  0  0  0  0  0  0  0  0  0  0
   27.5200   25.7100   32.6100 N   0  0  0  0  0  0  0  0  0  0  0  0
   23.2743   26.0737   35.2772 C   0  0  0  0  0  0  0  0  0  0  0  0
   22.4345   25.7291   36.2879 N   0  0  0  0  0  0  0  0  0  0  0  0
   21.0885   25.6672   36.1221 C   0  0  0  0  0  0  0  0  0  0  0  0
   20.5078   25.9794   34.8827 C   0  0  0  0  0  0  0  0  0  0  0  0
   19.0078   25.8889   34.7226 C   0  0  0  0  0  0  0  0  0  0  0  0
   18.6658   24.8366   33.7311 N   0  0  0  0  0  0  0  0  0  0  0  0
   18.0569   25.3756   32.4880 C   0  0  0  0  0  0  0  0  0  0  0  0
   19.0674   25.3675   31.3229 C   0  0  0  0  0  0  0  0  0  0  0  0
   20.4696   25.4163   31.7866 N   0  0  0  0  0  0  0  0  0  0  0  0
   21.3906   25.1371   30.6732 C   0  0  0  0  0  0  0  0  0  0  0  0
   20.8072   26.6948   32.4518 C   0  0  0  0  0  0  0  0  0  0  0  0
   21.3532   26.3879   33.8227 C   0  0  0  0  0  0  0  0  0  0  0  0
   22.7413   26.4221   34.0277 C   0  0  0  0  0  0  0  0  0  0  0  0
   17.8337   23.7786   34.3267 C   0  0  0  0  0  0  0  0  0  0  0  0
  1  2  1  0
  2  3  2  0
  2  4  1  0
  4  5  2  0
  5  6  1  0
  6  7  2  0
  7  8  1  0
  8  9  2  0
  9 10  1  0
 10 11  2  0
 11 12  1  0
 12 13  2  0
 13 14  1  0
  1 15  1  0
 15 16  2  0
 16 17  1  0
 17 18  2  0
 18 19  1  0
 19 20  1  0
 20 21  1  0
 21 22  1  0
 22 23  1  0
 23 24  1  0
 23 25  1  0
 25 26  1  0
 26 27  2  0
 20 28  1  0
 13  4  1  0
 27 15  1  0
 12  7  1  0
 26 18  1  0
M  END
>  <AAScore>  (1) 
932.4433862635144

>  <RootName>  (1) 
./4ZLY/04_DeltaGEst/trajectory_02/rank_00/lead_0375

$$$$
