confid_9
     RDKit          3D

 30 34  0  0  0  0  0  0  0  0999 V2000
   25.3300   26.2600   34.7600 N   0  0  0  0  0  0  0  0  0  0  0  0
   26.1200   25.9200   33.6900 C   0  0  0  0  0  0  0  0  0  0  0  0
   25.6300   25.1100   32.9400 O   0  0  0  0  0  0  0  0  0  0  0  0
   27.5200   26.3800   33.4600 C   0  0  0  0  0  0  0  0  0  0  0  0
   28.1600   26.6300   34.6100 N   0  0  0  0  0  0  0  0  0  0  0  0
   29.4800   26.8500   34.5700 N   0  0  0  0  0  0  0  0  0  0  0  0
   30.1900   26.7800   33.4400 C   0  0  0  0  0  0  0  0  0  0  0  0
   31.5600   27.0500   33.5000 C   0  0  0  0  0  0  0  0  0  0  0  0
   32.2700   27.2400   32.3100 C   0  0  0  0  0  0  0  0  0  0  0  0
   31.6100   27.2500   31.0800 C   0  0  0  0  0  0  0  0  0  0  0  0
   30.2700   26.8700   31.0600 C   0  0  0  0  0  0  0  0  0  0  0  0
   29.5100   26.6900   32.2300 C   0  0  0  0  0  0  0  0  0  0  0  0
   28.1400   26.4100   32.2000 C   0  0  0  0  0  0  0  0  0  0  0  0
   27.4300   26.1300   31.0500 N   0  0  0  0  0  0  0  0  0  0  0  0
   26.5199   27.1358   30.4936 C   0  0  0  0  0  0  0  0  0  0  0  0
   26.6352   27.1525   28.9674 C   0  0  0  0  0  0  0  0  0  0  0  0
   26.5394   25.7965   28.4002 N   0  0  0  0  0  0  0  0  0  0  0  0
   26.2900   25.6368   26.9870 C   0  0  0  0  0  0  0  0  0  0  0  0
   25.3640   24.6322   26.5288 C   0  0  0  0  0  0  0  0  0  0  0  0
   25.0846   24.4397   25.1545 C   0  0  0  0  0  0  0  0  0  0  0  0
   24.2126   23.4982   24.7195 F   0  0  0  0  0  0  0  0  0  0  0  0
   25.7499   25.2747   24.2846 C   0  0  0  0  0  0  0  0  0  0  0  0
   25.9810   25.6645   22.8604 C   0  0  2  0  0  0  0  0  0  0  0  0
   24.7241   26.2028   22.1615 C   0  0  0  0  0  0  0  0  0  0  0  0
   26.6220   24.6502   22.1291 O   0  0  0  0  0  0  0  0  0  0  0  0
   26.9170   26.6892   23.3126 C   0  0  0  0  0  0  0  0  0  0  0  0
   26.6599   26.2691   24.7223 C   0  0  0  0  0  0  0  0  0  0  0  0
   26.9558   26.4836   26.0523 C   0  0  0  0  0  0  0  0  0  0  0  0
   26.5534   24.6217   29.2860 C   0  0  0  0  0  0  0  0  0  0  0  0
   27.5671   24.8095   30.4199 C   0  0  0  0  0  0  0  0  0  0  0  0
  1  2  1  0
  2  3  2  0
  2  4  1  0
  4  5  2  0
  5  6  1  0
  6  7  2  0
  7  8  1  0
  8  9  2  0
  9 10  1  0
 10 11  2  0
 11 12  1  0
 12 13  2  0
 13 14  1  0
 14 15  1  0
 15 16  1  0
 16 17  1  0
 17 18  1  0
 18 19  2  0
 19 20  1  0
 20 21  1  0
 20 22  2  0
 22 23  1  0
 23 24  1  6
 23 25  1  0
 23 26  1  0
 26 27  1  0
 27 28  2  0
 17 29  1  0
 29 30  1  0
 13  4  1  0
 30 14  1  0
 12  7  1  0
 28 18  1  0
 27 22  1  0
M  END
>  <AAScore>  (1) 
2.2903443446828238

>  <RootName>  (1) 
./4ZLY/04_DeltaGEst/trajectory_03/rank_01/lead_0240

$$$$
