confid_6
     RDKit          3D

 27 30  0  0  0  0  0  0  0  0999 V2000
   24.4800   26.1000   36.1300 N   0  0  0  0  0  0  0  0  0  0  0  0
   25.2500   26.2500   34.9900 C   0  0  0  0  0  0  0  0  0  0  0  0
   24.7400   25.7600   33.9900 O   0  0  0  0  0  0  0  0  0  0  0  0
   26.5900   26.8900   34.9600 C   0  0  0  0  0  0  0  0  0  0  0  0
   27.0600   27.2400   36.1600 N   0  0  0  0  0  0  0  0  0  0  0  0
   28.3000   27.7100   36.2400 N   0  0  0  0  0  0  0  0  0  0  0  0
   29.0500   27.9600   35.1500 C   0  0  0  0  0  0  0  0  0  0  0  0
   30.3400   28.4900   35.2600 C   0  0  0  0  0  0  0  0  0  0  0  0
   31.1100   28.8200   34.1400 C   0  0  0  0  0  0  0  0  0  0  0  0
   30.5200   28.6700   32.8800 C   0  0  0  0  0  0  0  0  0  0  0  0
   29.2900   28.0200   32.7700 C   0  0  0  0  0  0  0  0  0  0  0  0
   28.5200   27.7100   33.8900 C   0  0  0  0  0  0  0  0  0  0  0  0
   27.2700   27.0800   33.7600 C   0  0  0  0  0  0  0  0  0  0  0  0
   26.7500   26.8800   32.4900 N   0  0  0  0  0  0  0  0  0  0  0  0
   23.3982   25.1570   36.2876 C   0  0  0  0  0  0  0  0  0  0  0  0
   23.4852   23.8598   35.7355 C   0  0  0  0  0  0  0  0  0  0  0  0
   22.4233   22.9731   35.9095 C   0  0  0  0  0  0  0  0  0  0  0  0
   22.3459   21.5785   35.4147 C   0  0  0  0  0  0  0  0  0  0  0  0
   20.8936   21.1335   35.7574 C   0  0  1  0  0  0  0  0  0  0  0  0
   20.0457   21.0323   34.4700 C   0  0  0  0  0  0  0  0  0  0  0  0
   20.9171   19.8400   36.4520 N   0  0  0  0  0  0  0  0  0  0  0  0
   20.3194   22.2329   36.6987 C   0  0  0  0  0  0  0  0  0  0  0  0
   21.3121   23.3307   36.6223 C   0  0  0  0  0  0  0  0  0  0  0  0
   21.2028   24.5917   37.2070 C   0  0  0  0  0  0  0  0  0  0  0  0
   22.2592   25.5177   37.0499 C   0  0  0  0  0  0  0  0  0  0  0  0
   22.2116   26.7970   37.6280 O   0  0  0  0  0  0  0  0  0  0  0  0
   21.1422   27.2803   38.4333 C   0  0  0  0  0  0  0  0  0  0  0  0
  1  2  1  0
  2  3  2  0
  2  4  1  0
  4  5  2  0
  5  6  1  0
  6  7  2  0
  7  8  1  0
  8  9  2  0
  9 10  1  0
 10 11  2  0
 11 12  1  0
 12 13  2  0
 13 14  1  0
  1 15  1  0
 15 16  2  0
 16 17  1  0
 17 18  1  0
 18 19  1  0
 19 20  1  6
 19 21  1  0
 19 22  1  0
 22 23  1  0
 23 24  1  0
 24 25  2  0
 25 26  1  0
 26 27  1  0
 13  4  1  0
 25 15  1  0
 12  7  1  0
 23 17  2  0
M  END
>  <AAScore>  (1) 
555.4696135285707

>  <RootName>  (1) 
./4ZLY/04_DeltaGEst/trajectory_00/rank_00/lead_0014

$$$$
