confid_19
     RDKit          3D

 28 32  0  0  0  0  0  0  0  0999 V2000
   24.4800   26.1000   36.1300 N   0  0  0  0  0  0  0  0  0  0  0  0
   25.2500   26.2500   34.9900 C   0  0  0  0  0  0  0  0  0  0  0  0
   24.7400   25.7600   33.9900 O   0  0  0  0  0  0  0  0  0  0  0  0
   26.5900   26.8900   34.9600 C   0  0  0  0  0  0  0  0  0  0  0  0
   27.0600   27.2400   36.1600 N   0  0  0  0  0  0  0  0  0  0  0  0
   28.3000   27.7100   36.2400 N   0  0  0  0  0  0  0  0  0  0  0  0
   29.0500   27.9600   35.1500 C   0  0  0  0  0  0  0  0  0  0  0  0
   30.3400   28.4900   35.2600 C   0  0  0  0  0  0  0  0  0  0  0  0
   31.1100   28.8200   34.1400 C   0  0  0  0  0  0  0  0  0  0  0  0
   30.5200   28.6700   32.8800 C   0  0  0  0  0  0  0  0  0  0  0  0
   29.2900   28.0200   32.7700 C   0  0  0  0  0  0  0  0  0  0  0  0
   28.5200   27.7100   33.8900 C   0  0  0  0  0  0  0  0  0  0  0  0
   27.2700   27.0800   33.7600 C   0  0  0  0  0  0  0  0  0  0  0  0
   26.7500   26.8800   32.4900 N   0  0  0  0  0  0  0  0  0  0  0  0
   23.4887   25.0786   36.3438 C   0  0  0  0  0  0  0  0  0  0  0  0
   22.4017   25.3826   37.1909 N   0  0  0  0  0  0  0  0  0  0  0  0
   21.3650   24.5226   37.5240 C   0  0  0  0  0  0  0  0  0  0  0  0
   21.5093   23.3115   36.9449 C   0  0  0  0  0  0  0  0  0  0  0  0
   21.6032   22.0335   36.3724 C   0  0  1  0  0  0  0  0  0  0  0  0
   20.5340   21.7691   35.2929 C   0  0  0  0  0  0  0  0  0  0  0  0
   20.5848   22.7448   34.1751 N   0  0  0  0  0  0  0  0  0  0  0  0
   21.5582   22.3417   33.1263 C   0  0  0  0  0  0  0  0  0  0  0  0
   20.9091   21.5985   31.9546 C   0  0  0  0  0  0  0  0  0  0  0  0
   19.8292   22.7027   30.9690 S   0  0  0  0  0  0  0  0  0  0  0  0
   19.2619   23.7859   32.3319 C   0  0  0  0  0  0  0  0  0  0  0  0
   19.2254   23.0406   33.6662 C   0  0  0  0  0  0  0  0  0  0  0  0
   22.6213   22.9524   36.0775 C   0  0  0  0  0  0  0  0  0  0  0  0
   23.6495   23.7701   35.7373 C   0  0  0  0  0  0  0  0  0  0  0  0
  1  2  1  0
  2  3  2  0
  2  4  1  0
  4  5  2  0
  5  6  1  0
  6  7  2  0
  7  8  1  0
  8  9  2  0
  9 10  1  0
 10 11  2  0
 11 12  1  0
 12 13  2  0
 13 14  1  0
  1 15  1  0
 15 16  2  0
 16 17  1  0
 17 18  2  0
 18 19  1  0
 19 20  1  6
 20 21  1  0
 21 22  1  0
 22 23  1  0
 23 24  1  0
 24 25  1  0
 25 26  1  0
 19 27  1  0
 27 28  2  0
 13  4  1  0
 28 15  1  0
 12  7  1  0
 27 18  1  0
 26 21  1  0
M  END
>  <AAScore>  (1) 
499.987521071879

>  <RootName>  (1) 
./4ZLY/04_DeltaGEst/trajectory_00/rank_00/lead_0065

$$$$
