confid_15
     RDKit          3D

 31 35  0  0  0  0  0  0  0  0999 V2000
   24.5700   26.8800   35.5900 N   0  0  0  0  0  0  0  0  0  0  0  0
   25.5000   26.4000   34.6900 C   0  0  0  0  0  0  0  0  0  0  0  0
   25.1700   25.5200   33.9100 O   0  0  0  0  0  0  0  0  0  0  0  0
   26.8400   27.0200   34.7400 C   0  0  0  0  0  0  0  0  0  0  0  0
   27.3800   27.2800   35.9400 N   0  0  0  0  0  0  0  0  0  0  0  0
   28.6200   27.7400   36.0300 N   0  0  0  0  0  0  0  0  0  0  0  0
   29.3800   28.0000   34.9600 C   0  0  0  0  0  0  0  0  0  0  0  0
   30.6700   28.5000   35.1300 C   0  0  0  0  0  0  0  0  0  0  0  0
   31.5400   28.6100   34.0300 C   0  0  0  0  0  0  0  0  0  0  0  0
   31.0900   28.2200   32.7700 C   0  0  0  0  0  0  0  0  0  0  0  0
   29.8000   27.7000   32.6000 C   0  0  0  0  0  0  0  0  0  0  0  0
   28.9600   27.5500   33.7100 C   0  0  0  0  0  0  0  0  0  0  0  0
   27.6600   27.0300   33.5900 C   0  0  0  0  0  0  0  0  0  0  0  0
   27.1600   26.7400   32.3400 N   0  0  0  0  0  0  0  0  0  0  0  0
   23.2874   26.2731   35.8657 C   0  0  0  0  0  0  0  0  0  0  0  0
   23.0224   25.0974   35.3716 N   0  0  0  0  0  0  0  0  0  0  0  0
   21.8751   24.2583   35.5503 C   0  0  0  0  0  0  0  0  0  0  0  0
   21.2619   24.0885   36.7287 C   0  0  0  0  0  0  0  0  0  0  0  0
   20.2856   22.9505   36.9091 C   0  0  0  0  0  0  0  0  0  0  0  0
   20.3052   22.4329   38.3254 C   0  0  0  0  0  0  0  0  0  0  0  0
   19.6165   21.4708   38.6258 O   0  0  0  0  0  0  0  0  0  0  0  0
   21.2061   23.0582   39.3580 C   0  0  0  0  0  0  0  0  0  0  0  0
   21.3814   24.4835   39.0894 N   0  0  0  0  0  0  0  0  0  0  0  0
   21.4951   24.9728   37.8877 C   0  0  0  0  0  0  0  0  0  0  0  0
   21.5368   26.4353   37.7024 C   0  0  0  0  0  0  0  0  0  0  0  0
   20.7456   27.2435   38.5394 C   0  0  0  0  0  0  0  0  0  0  0  0
   20.6847   28.6229   38.3510 C   0  0  0  0  0  0  0  0  0  0  0  0
   21.3998   29.2216   37.3120 C   0  0  0  0  0  0  0  0  0  0  0  0
   21.3632   30.7105   37.1366 C   0  0  0  0  0  0  0  0  0  0  0  0
   22.2197   28.4310   36.4959 C   0  0  0  0  0  0  0  0  0  0  0  0
   22.3042   27.0369   36.6823 C   0  0  0  0  0  0  0  0  0  0  0  0
  1  2  1  0
  2  3  2  0
  2  4  1  0
  4  5  2  0
  5  6  1  0
  6  7  2  0
  7  8  1  0
  8  9  2  0
  9 10  1  0
 10 11  2  0
 11 12  1  0
 12 13  2  0
 13 14  1  0
  1 15  1  0
 15 16  2  0
 16 17  1  0
 17 18  2  0
 18 19  1  0
 19 20  1  0
 20 21  2  0
 20 22  1  0
 22 23  1  0
 23 24  2  0
 24 25  1  0
 25 26  2  0
 26 27  1  0
 27 28  2  0
 28 29  1  0
 28 30  1  0
 30 31  2  0
 13  4  1  0
 31 15  1  0
 12  7  1  0
 24 18  1  0
 31 25  1  0
M  END
>  <AAScore>  (1) 
30955.632224874767

>  <RootName>  (1) 
./4ZLY/04_DeltaGEst/trajectory_05/rank_00/lead_0165

$$$$
