confid_3
     RDKit          3D

 29 32  0  0  0  0  0  0  0  0999 V2000
   25.3300   26.2600   34.7600 N   0  0  0  0  0  0  0  0  0  0  0  0
   26.1200   25.9200   33.6900 C   0  0  0  0  0  0  0  0  0  0  0  0
   25.6300   25.1100   32.9400 O   0  0  0  0  0  0  0  0  0  0  0  0
   27.5200   26.3800   33.4600 C   0  0  0  0  0  0  0  0  0  0  0  0
   28.1600   26.6300   34.6100 N   0  0  0  0  0  0  0  0  0  0  0  0
   29.4800   26.8500   34.5700 N   0  0  0  0  0  0  0  0  0  0  0  0
   30.1900   26.7800   33.4400 C   0  0  0  0  0  0  0  0  0  0  0  0
   31.5600   27.0500   33.5000 C   0  0  0  0  0  0  0  0  0  0  0  0
   32.2700   27.2400   32.3100 C   0  0  0  0  0  0  0  0  0  0  0  0
   31.6100   27.2500   31.0800 C   0  0  0  0  0  0  0  0  0  0  0  0
   30.2700   26.8700   31.0600 C   0  0  0  0  0  0  0  0  0  0  0  0
   29.5100   26.6900   32.2300 C   0  0  0  0  0  0  0  0  0  0  0  0
   28.1400   26.4100   32.2000 C   0  0  0  0  0  0  0  0  0  0  0  0
   27.4300   26.1300   31.0500 N   0  0  0  0  0  0  0  0  0  0  0  0
   26.4262   27.0719   30.5478 C   0  0  0  0  0  0  0  0  0  0  0  0
   26.5037   27.1435   29.0217 C   0  0  0  0  0  0  0  0  0  0  0  0
   26.4162   25.7879   28.4405 N   0  0  0  0  0  0  0  0  0  0  0  0
   26.3799   25.8722   26.9656 C   0  0  0  0  0  0  0  0  0  0  0  0
   25.9206   24.5655   26.3707 C   0  0  0  0  0  0  0  0  0  0  0  0
   24.6128   24.1175   26.5986 C   0  0  0  0  0  0  0  0  0  0  0  0
   24.1894   22.8951   26.0785 C   0  0  0  0  0  0  0  0  0  0  0  0
   25.0652   22.1087   25.3276 C   0  0  0  0  0  0  0  0  0  0  0  0
   26.3875   22.5348   25.0828 C   0  0  0  0  0  0  0  0  0  0  0  0
   27.2999   21.7179   24.3040 N   0  0  0  0  0  0  0  0  0  0  0  0
   28.4527   22.3244   23.6270 C   0  0  0  0  0  0  0  0  0  0  0  0
   27.0791   20.2731   24.1713 C   0  0  0  0  0  0  0  0  0  0  0  0
   26.8021   23.7737   25.6162 C   0  0  0  0  0  0  0  0  0  0  0  0
   27.5658   24.9716   28.8891 C   0  0  0  0  0  0  0  0  0  0  0  0
   27.5484   24.8154   30.4115 C   0  0  0  0  0  0  0  0  0  0  0  0
  1  2  1  0
  2  3  2  0
  2  4  1  0
  4  5  2  0
  5  6  1  0
  6  7  2  0
  7  8  1  0
  8  9  2  0
  9 10  1  0
 10 11  2  0
 11 12  1  0
 12 13  2  0
 13 14  1  0
 14 15  1  0
 15 16  1  0
 16 17  1  0
 17 18  1  0
 18 19  1  0
 19 20  2  0
 20 21  1  0
 21 22  2  0
 22 23  1  0
 23 24  1  0
 24 25  1  0
 24 26  1  0
 23 27  2  0
 17 28  1  0
 28 29  1  0
 13  4  1  0
 29 14  1  0
 12  7  1  0
 27 19  1  0
M  END
>  <AAScore>  (1) 
24.68753791408191

>  <RootName>  (1) 
./4ZLY/04_DeltaGEst/trajectory_03/rank_01/lead_0416

$$$$
