confid_11
     RDKit          3D

 27 30  0  0  0  0  0  0  0  0999 V2000
   24.5700   26.8800   35.5900 N   0  0  0  0  0  0  0  0  0  0  0  0
   25.5000   26.4000   34.6900 C   0  0  0  0  0  0  0  0  0  0  0  0
   25.1700   25.5200   33.9100 O   0  0  0  0  0  0  0  0  0  0  0  0
   26.8400   27.0200   34.7400 C   0  0  0  0  0  0  0  0  0  0  0  0
   27.3800   27.2800   35.9400 N   0  0  0  0  0  0  0  0  0  0  0  0
   28.6200   27.7400   36.0300 N   0  0  0  0  0  0  0  0  0  0  0  0
   29.3800   28.0000   34.9600 C   0  0  0  0  0  0  0  0  0  0  0  0
   30.6700   28.5000   35.1300 C   0  0  0  0  0  0  0  0  0  0  0  0
   31.5400   28.6100   34.0300 C   0  0  0  0  0  0  0  0  0  0  0  0
   31.0900   28.2200   32.7700 C   0  0  0  0  0  0  0  0  0  0  0  0
   29.8000   27.7000   32.6000 C   0  0  0  0  0  0  0  0  0  0  0  0
   28.9600   27.5500   33.7100 C   0  0  0  0  0  0  0  0  0  0  0  0
   27.6600   27.0300   33.5900 C   0  0  0  0  0  0  0  0  0  0  0  0
   27.1600   26.7400   32.3400 N   0  0  0  0  0  0  0  0  0  0  0  0
   23.1739   26.5356   35.5774 C   0  0  0  0  0  0  0  0  0  0  0  0
   22.5819   26.0692   34.5249 N   0  0  0  0  0  0  0  0  0  0  0  0
   21.1906   26.0619   34.7943 C   0  0  0  0  0  0  0  0  0  0  0  0
   20.9339   26.5730   35.9864 C   0  0  0  0  0  0  0  0  0  0  0  0
   19.5668   26.7528   36.5678 C   0  0  0  0  0  0  0  0  0  0  0  0
   19.2471   25.6225   37.4457 N   0  0  0  0  0  0  0  0  0  0  0  0
   18.1139   24.7450   37.1352 C   0  0  0  0  0  0  0  0  0  0  0  0
   20.0495   25.3506   38.6141 C   0  0  0  0  0  0  0  0  0  0  0  0
   19.7645   24.3694   39.3545 O   0  0  0  0  0  0  0  0  0  0  0  0
   21.2487   26.1950   38.9664 C   0  0  0  0  0  0  0  0  0  0  0  0
   22.4093   25.9985   37.9566 C   0  0  2  0  0  0  0  0  0  0  0  0
   23.7479   26.3065   38.6500 C   0  0  0  0  0  0  0  0  0  0  0  0
   22.2184   26.8852   36.6894 C   0  0  1  0  0  0  0  0  0  0  0  0
  1  2  1  0
  2  3  2  0
  2  4  1  0
  4  5  2  0
  5  6  1  0
  6  7  2  0
  7  8  1  0
  8  9  2  0
  9 10  1  0
 10 11  2  0
 11 12  1  0
 12 13  2  0
 13 14  1  0
  1 15  1  0
 15 16  2  0
 16 17  1  0
 17 18  2  0
 18 19  1  0
 19 20  1  0
 20 21  1  0
 20 22  1  0
 22 23  2  0
 22 24  1  0
 24 25  1  0
 25 26  1  1
 25 27  1  0
 13  4  1  0
 27 15  1  6
 12  7  1  0
 27 18  1  0
M  END
>  <AAScore>  (1) 
589.4190247288568

>  <RootName>  (1) 
./4ZLY/04_DeltaGEst/trajectory_05/rank_00/lead_0124

$$$$
