confid_12
     RDKit          3D

 28 31  0  0  0  0  0  0  0  0999 V2000
   24.2000   26.2400   35.6900 N   0  0  0  0  0  0  0  0  0  0  0  0
   24.8500   26.2800   34.4800 C   0  0  0  0  0  0  0  0  0  0  0  0
   24.3100   25.7400   33.5400 O   0  0  0  0  0  0  0  0  0  0  0  0
   26.1800   26.9700   34.4700 C   0  0  0  0  0  0  0  0  0  0  0  0
   26.6500   27.6000   35.5500 N   0  0  0  0  0  0  0  0  0  0  0  0
   27.7900   28.2700   35.6200 N   0  0  0  0  0  0  0  0  0  0  0  0
   28.5400   28.3000   34.5100 C   0  0  0  0  0  0  0  0  0  0  0  0
   29.7700   28.9400   34.5600 C   0  0  0  0  0  0  0  0  0  0  0  0
   30.7000   28.8900   33.5000 C   0  0  0  0  0  0  0  0  0  0  0  0
   30.3700   28.1400   32.3700 C   0  0  0  0  0  0  0  0  0  0  0  0
   29.1200   27.5200   32.2800 C   0  0  0  0  0  0  0  0  0  0  0  0
   28.2100   27.6100   33.3300 C   0  0  0  0  0  0  0  0  0  0  0  0
   26.9700   26.9700   33.3100 C   0  0  0  0  0  0  0  0  0  0  0  0
   26.5300   26.2400   32.2200 N   0  0  0  0  0  0  0  0  0  0  0  0
   22.7742   26.0933   35.8442 C   0  0  0  0  0  0  0  0  0  0  0  0
   21.9480   26.1395   34.7660 N   0  0  0  0  0  0  0  0  0  0  0  0
   20.6011   26.0244   34.8813 C   0  0  0  0  0  0  0  0  0  0  0  0
   19.9956   25.8489   36.1371 C   0  0  0  0  0  0  0  0  0  0  0  0
   18.4716   25.8347   36.1562 C   0  0  0  0  0  0  0  0  0  0  0  0
   17.8547   25.4635   37.4482 N   0  0  0  0  0  0  0  0  0  0  0  0
   16.3875   25.5801   37.3398 C   0  0  0  0  0  0  0  0  0  0  0  0
   18.3700   24.1528   37.9440 C   0  0  2  0  0  0  0  0  0  0  0  0
   17.3134   23.1909   38.5330 C   0  0  0  0  0  0  0  0  0  0  0  0
   19.4365   24.4375   39.0111 C   0  0  0  0  0  0  0  0  0  0  0  0
   20.3267   25.5962   38.6536 C   0  0  0  0  0  0  0  0  0  0  0  0
   20.7378   26.3523   39.5754 O   0  0  0  0  0  0  0  0  0  0  0  0
   20.8358   25.7957   37.2815 C   0  0  0  0  0  0  0  0  0  0  0  0
   22.2238   25.9327   37.1198 C   0  0  0  0  0  0  0  0  0  0  0  0
  1  2  1  0
  2  3  2  0
  2  4  1  0
  4  5  2  0
  5  6  1  0
  6  7  2  0
  7  8  1  0
  8  9  2  0
  9 10  1  0
 10 11  2  0
 11 12  1  0
 12 13  2  0
 13 14  1  0
  1 15  1  0
 15 16  2  0
 16 17  1  0
 17 18  2  0
 18 19  1  0
 19 20  1  0
 20 21  1  0
 20 22  1  0
 22 23  1  1
 22 24  1  0
 24 25  1  0
 25 26  2  0
 25 27  1  0
 27 28  2  0
 13  4  1  0
 28 15  1  0
 12  7  1  0
 27 18  1  0
M  END
>  <AAScore>  (1) 
258.2321662117022

>  <RootName>  (1) 
./4ZLY/04_DeltaGEst/trajectory_04/rank_00/lead_0291

$$$$
