confid_1
     RDKit          3D

 27 30  0  0  0  0  0  0  0  0999 V2000
   25.3300   26.2600   34.7600 N   0  0  0  0  0  0  0  0  0  0  0  0
   26.1200   25.9200   33.6900 C   0  0  0  0  0  0  0  0  0  0  0  0
   25.6300   25.1100   32.9400 O   0  0  0  0  0  0  0  0  0  0  0  0
   27.5200   26.3800   33.4600 C   0  0  0  0  0  0  0  0  0  0  0  0
   28.1600   26.6300   34.6100 N   0  0  0  0  0  0  0  0  0  0  0  0
   29.4800   26.8500   34.5700 N   0  0  0  0  0  0  0  0  0  0  0  0
   30.1900   26.7800   33.4400 C   0  0  0  0  0  0  0  0  0  0  0  0
   31.5600   27.0500   33.5000 C   0  0  0  0  0  0  0  0  0  0  0  0
   32.2700   27.2400   32.3100 C   0  0  0  0  0  0  0  0  0  0  0  0
   31.6100   27.2500   31.0800 C   0  0  0  0  0  0  0  0  0  0  0  0
   30.2700   26.8700   31.0600 C   0  0  0  0  0  0  0  0  0  0  0  0
   29.5100   26.6900   32.2300 C   0  0  0  0  0  0  0  0  0  0  0  0
   28.1400   26.4100   32.2000 C   0  0  0  0  0  0  0  0  0  0  0  0
   27.4300   26.1300   31.0500 N   0  0  0  0  0  0  0  0  0  0  0  0
   24.1933   25.5042   35.2355 C   0  0  0  0  0  0  0  0  0  0  0  0
   24.0691   24.1846   34.9033 N   0  0  0  0  0  0  0  0  0  0  0  0
   23.0236   23.4532   35.3570 C   0  0  0  0  0  0  0  0  0  0  0  0
   22.7657   22.0297   35.0794 C   0  0  0  0  0  0  0  0  0  0  0  0
   21.4678   21.7347   35.7322 N   0  0  0  0  0  0  0  0  0  0  0  0
   21.5539   20.5492   36.5977 C   0  0  0  0  0  0  0  0  0  0  0  0
   21.0686   22.9431   36.4969 C   0  0  0  0  0  0  0  0  0  0  0  0
   22.0700   23.9846   36.1614 C   0  0  0  0  0  0  0  0  0  0  0  0
   22.1343   25.3277   36.5602 C   0  0  0  0  0  0  0  0  0  0  0  0
   23.2191   26.1059   36.0804 C   0  0  0  0  0  0  0  0  0  0  0  0
   23.3188   27.5060   36.4296 C   0  0  0  0  0  0  0  0  0  0  0  0
   23.3978   28.6262   36.7092 N   0  0  0  0  0  0  0  0  0  0  0  0
   21.0706   25.9286   37.4443 C   0  0  0  0  0  0  0  0  0  0  0  0
  1  2  1  0
  2  3  2  0
  2  4  1  0
  4  5  2  0
  5  6  1  0
  6  7  2  0
  7  8  1  0
  8  9  2  0
  9 10  1  0
 10 11  2  0
 11 12  1  0
 12 13  2  0
 13 14  1  0
  1 15  1  0
 15 16  2  0
 16 17  1  0
 17 18  1  0
 18 19  1  0
 19 20  1  0
 19 21  1  0
 21 22  1  0
 22 23  1  0
 23 24  2  0
 24 25  1  0
 25 26  3  0
 23 27  1  0
 13  4  1  0
 24 15  1  0
 12  7  1  0
 22 17  2  0
M  END
>  <AAScore>  (1) 
3624.792766103644

>  <RootName>  (1) 
./4ZLY/04_DeltaGEst/trajectory_03/rank_00/lead_0032

$$$$
