confid_14
     RDKit          3D

 27 31  0  0  0  0  0  0  0  0999 V2000
   24.5700   26.8800   35.5900 N   0  0  0  0  0  0  0  0  0  0  0  0
   25.5000   26.4000   34.6900 C   0  0  0  0  0  0  0  0  0  0  0  0
   25.1700   25.5200   33.9100 O   0  0  0  0  0  0  0  0  0  0  0  0
   26.8400   27.0200   34.7400 C   0  0  0  0  0  0  0  0  0  0  0  0
   27.3800   27.2800   35.9400 N   0  0  0  0  0  0  0  0  0  0  0  0
   28.6200   27.7400   36.0300 N   0  0  0  0  0  0  0  0  0  0  0  0
   29.3800   28.0000   34.9600 C   0  0  0  0  0  0  0  0  0  0  0  0
   30.6700   28.5000   35.1300 C   0  0  0  0  0  0  0  0  0  0  0  0
   31.5400   28.6100   34.0300 C   0  0  0  0  0  0  0  0  0  0  0  0
   31.0900   28.2200   32.7700 C   0  0  0  0  0  0  0  0  0  0  0  0
   29.8000   27.7000   32.6000 C   0  0  0  0  0  0  0  0  0  0  0  0
   28.9600   27.5500   33.7100 C   0  0  0  0  0  0  0  0  0  0  0  0
   27.6600   27.0300   33.5900 C   0  0  0  0  0  0  0  0  0  0  0  0
   27.1600   26.7400   32.3400 N   0  0  0  0  0  0  0  0  0  0  0  0
   23.4636   26.0984   36.0529 C   0  0  0  0  0  0  0  0  0  0  0  0
   22.2619   26.6007   36.1419 N   0  0  0  0  0  0  0  0  0  0  0  0
   21.4104   25.6242   36.7419 C   0  0  0  0  0  0  0  0  0  0  0  0
   22.1557   24.5707   36.9582 C   0  0  0  0  0  0  0  0  0  0  0  0
   22.4141   23.3252   36.1774 C   0  0  0  0  0  0  0  0  0  0  0  0
   23.8098   23.5917   35.8450 N   0  0  0  0  0  0  0  0  0  0  0  0
   24.9060   22.8976   35.2498 C   0  0  0  0  0  0  0  0  0  0  0  0
   26.0837   23.2434   35.5354 O   0  0  0  0  0  0  0  0  0  0  0  0
   24.6523   21.7071   34.3615 C   0  0  0  0  0  0  0  0  0  0  0  0
   25.7505   21.4249   33.3328 C   0  0  0  0  0  0  0  0  0  0  0  0
   24.7665   21.6980   32.2047 C   0  0  0  0  0  0  0  0  0  0  0  0
   23.6755   21.9983   33.2221 C   0  0  0  0  0  0  0  0  0  0  0  0
   23.5899   24.7416   36.7157 C   0  0  1  0  0  0  0  0  0  0  0  0
  1  2  1  0
  2  3  2  0
  2  4  1  0
  4  5  2  0
  5  6  1  0
  6  7  2  0
  7  8  1  0
  8  9  2  0
  9 10  1  0
 10 11  2  0
 11 12  1  0
 12 13  2  0
 13 14  1  0
  1 15  1  0
 15 16  2  0
 16 17  1  0
 17 18  2  0
 18 19  1  0
 19 20  1  0
 20 21  1  0
 21 22  2  0
 21 23  1  0
 23 24  1  0
 24 25  1  0
 25 26  1  0
 27 20  1  6
 13  4  1  0
 27 15  1  0
 12  7  1  0
 27 18  1  0
 26 23  1  0
M  END
>  <AAScore>  (1) 
504.04706094505246

>  <RootName>  (1) 
./4ZLY/04_DeltaGEst/trajectory_05/rank_00/lead_0225

$$$$
