confid_10
     RDKit          3D

 27 30  0  0  0  0  0  0  0  0999 V2000
   24.2000   26.2400   35.6900 N   0  0  0  0  0  0  0  0  0  0  0  0
   24.8500   26.2800   34.4800 C   0  0  0  0  0  0  0  0  0  0  0  0
   24.3100   25.7400   33.5400 O   0  0  0  0  0  0  0  0  0  0  0  0
   26.1800   26.9700   34.4700 C   0  0  0  0  0  0  0  0  0  0  0  0
   26.6500   27.6000   35.5500 N   0  0  0  0  0  0  0  0  0  0  0  0
   27.7900   28.2700   35.6200 N   0  0  0  0  0  0  0  0  0  0  0  0
   28.5400   28.3000   34.5100 C   0  0  0  0  0  0  0  0  0  0  0  0
   29.7700   28.9400   34.5600 C   0  0  0  0  0  0  0  0  0  0  0  0
   30.7000   28.8900   33.5000 C   0  0  0  0  0  0  0  0  0  0  0  0
   30.3700   28.1400   32.3700 C   0  0  0  0  0  0  0  0  0  0  0  0
   29.1200   27.5200   32.2800 C   0  0  0  0  0  0  0  0  0  0  0  0
   28.2100   27.6100   33.3300 C   0  0  0  0  0  0  0  0  0  0  0  0
   26.9700   26.9700   33.3100 C   0  0  0  0  0  0  0  0  0  0  0  0
   26.5300   26.2400   32.2200 N   0  0  0  0  0  0  0  0  0  0  0  0
   22.7765   26.1069   35.8245 C   0  0  0  0  0  0  0  0  0  0  0  0
   21.9078   26.2007   34.7893 N   0  0  0  0  0  0  0  0  0  0  0  0
   20.6236   26.0862   35.2159 C   0  0  0  0  0  0  0  0  0  0  0  0
   19.4431   26.1173   34.2958 C   0  0  0  0  0  0  0  0  0  0  0  0
   18.1490   26.3642   35.0918 C   0  0  0  0  0  0  0  0  0  0  0  0
   18.0830   25.4630   36.2700 N   0  0  0  0  0  0  0  0  0  0  0  0
   19.1403   25.8083   37.2504 C   0  0  0  0  0  0  0  0  0  0  0  0
   20.4736   25.8739   36.5748 C   0  0  0  0  0  0  0  0  0  0  0  0
   21.9889   25.8877   37.3020 S   0  0  0  0  0  0  0  0  0  0  0  0
   16.7519   25.5202   36.9118 C   0  0  0  0  0  0  0  0  0  0  0  0
   15.7826   24.5501   36.2342 C   0  0  0  0  0  0  0  0  0  0  0  0
   14.5589   24.5542   36.9392 O   0  0  0  0  0  0  0  0  0  0  0  0
   13.6642   23.6521   36.3280 C   0  0  0  0  0  0  0  0  0  0  0  0
  1  2  1  0
  2  3  2  0
  2  4  1  0
  4  5  2  0
  5  6  1  0
  6  7  2  0
  7  8  1  0
  8  9  2  0
  9 10  1  0
 10 11  2  0
 11 12  1  0
 12 13  2  0
 13 14  1  0
  1 15  1  0
 15 16  2  0
 16 17  1  0
 17 18  1  0
 18 19  1  0
 19 20  1  0
 20 21  1  0
 21 22  1  0
 22 23  1  0
 20 24  1  0
 24 25  1  0
 25 26  1  0
 26 27  1  0
 13  4  1  0
 23 15  1  0
 12  7  1  0
 22 17  2  0
M  END
>  <AAScore>  (1) 
972.8531812157364

>  <RootName>  (1) 
./4ZLY/04_DeltaGEst/trajectory_04/rank_00/lead_0427

$$$$
