confid_6
     RDKit          3D

 27 30  0  0  0  0  0  0  0  0999 V2000
   24.5500   26.3900   36.2500 N   0  0  0  0  0  0  0  0  0  0  0  0
   25.6000   26.1300   35.4000 C   0  0  0  0  0  0  0  0  0  0  0  0
   25.4300   25.4300   34.4200 O   0  0  0  0  0  0  0  0  0  0  0  0
   26.9800   26.6300   35.7100 C   0  0  0  0  0  0  0  0  0  0  0  0
   27.3200   26.8200   36.9800 N   0  0  0  0  0  0  0  0  0  0  0  0
   28.4700   27.4000   37.3100 N   0  0  0  0  0  0  0  0  0  0  0  0
   29.4000   27.6300   36.3700 C   0  0  0  0  0  0  0  0  0  0  0  0
   30.6600   28.0500   36.8000 C   0  0  0  0  0  0  0  0  0  0  0  0
   31.5700   28.3600   35.7800 C   0  0  0  0  0  0  0  0  0  0  0  0
   31.3700   28.1000   34.4300 C   0  0  0  0  0  0  0  0  0  0  0  0
   30.1200   27.5900   34.0500 C   0  0  0  0  0  0  0  0  0  0  0  0
   29.1500   27.3400   35.0300 C   0  0  0  0  0  0  0  0  0  0  0  0
   27.8800   26.8900   34.6600 C   0  0  0  0  0  0  0  0  0  0  0  0
   27.4800   26.6100   33.3700 N   0  0  0  0  0  0  0  0  0  0  0  0
   30.9685   28.3003   38.1820 N   0  0  0  0  0  0  0  0  0  0  0  0
   32.1482   27.6732   38.7822 C   0  0  0  0  0  0  0  0  0  0  0  0
   32.0923   27.7638   40.3174 C   0  0  0  0  0  0  0  0  0  0  0  0
   30.7020   27.7356   40.8166 N   0  0  0  0  0  0  0  0  0  0  0  0
   30.0273   26.4330   40.5844 C   0  0  0  0  0  0  0  0  0  0  0  0
   29.5629   25.7998   41.9109 C   0  0  0  0  0  0  0  0  0  0  0  0
   28.4784   26.6381   42.6238 C   0  0  0  0  0  0  0  0  0  0  0  0
   28.2865   26.2128   44.0939 C   0  0  0  0  0  0  0  0  0  0  0  0
   28.8054   24.8593   44.3246 N   0  0  0  0  0  0  0  0  0  0  0  0
   30.2687   24.8202   44.1566 C   0  0  0  0  0  0  0  0  0  0  0  0
   30.7396   25.5274   42.8648 C   0  0  0  0  0  0  0  0  0  0  0  0
   29.9147   28.9023   40.3438 C   0  0  0  0  0  0  0  0  0  0  0  0
   30.2768   29.3623   38.9160 C   0  0  0  0  0  0  0  0  0  0  0  0
  1  2  1  0
  2  3  2  0
  2  4  1  0
  4  5  2  0
  5  6  1  0
  6  7  2  0
  7  8  1  0
  8  9  2  0
  9 10  1  0
 10 11  2  0
 11 12  1  0
 12 13  2  0
 13 14  1  0
  8 15  1  0
 15 16  1  0
 16 17  1  0
 17 18  1  0
 18 19  1  0
 19 20  1  0
 20 21  1  0
 21 22  1  0
 22 23  1  0
 23 24  1  0
 24 25  1  0
 18 26  1  0
 26 27  1  0
 13  4  1  0
 27 15  1  0
 12  7  1  0
 25 20  1  0
M  END
>  <AAScore>  (1) 
23.66948997358868

>  <RootName>  (1) 
./4ZLY/04_DeltaGEst/trajectory_01/rank_01/lead_0393

$$$$
