confid_4
     RDKit          3D

 29 32  0  0  0  0  0  0  0  0999 V2000
   24.5700   26.8800   35.5900 N   0  0  0  0  0  0  0  0  0  0  0  0
   25.5000   26.4000   34.6900 C   0  0  0  0  0  0  0  0  0  0  0  0
   25.1700   25.5200   33.9100 O   0  0  0  0  0  0  0  0  0  0  0  0
   26.8400   27.0200   34.7400 C   0  0  0  0  0  0  0  0  0  0  0  0
   27.3800   27.2800   35.9400 N   0  0  0  0  0  0  0  0  0  0  0  0
   28.6200   27.7400   36.0300 N   0  0  0  0  0  0  0  0  0  0  0  0
   29.3800   28.0000   34.9600 C   0  0  0  0  0  0  0  0  0  0  0  0
   30.6700   28.5000   35.1300 C   0  0  0  0  0  0  0  0  0  0  0  0
   31.5400   28.6100   34.0300 C   0  0  0  0  0  0  0  0  0  0  0  0
   31.0900   28.2200   32.7700 C   0  0  0  0  0  0  0  0  0  0  0  0
   29.8000   27.7000   32.6000 C   0  0  0  0  0  0  0  0  0  0  0  0
   28.9600   27.5500   33.7100 C   0  0  0  0  0  0  0  0  0  0  0  0
   27.6600   27.0300   33.5900 C   0  0  0  0  0  0  0  0  0  0  0  0
   27.1600   26.7400   32.3400 N   0  0  0  0  0  0  0  0  0  0  0  0
   33.1798   29.2335   34.2325 S   0  0  0  0  0  6  0  0  0  0  0  0
   34.1190   28.2570   33.5824 O   0  0  0  0  0  0  0  0  0  0  0  0
   33.5205   29.2910   35.6957 O   0  0  0  0  0  0  0  0  0  0  0  0
   33.4799   30.8568   33.4993 C   0  0  2  0  0  0  0  0  0  0  0  0
   32.8039   32.0965   34.1001 C   0  0  2  0  0  0  0  0  0  0  0  0
   31.8495   31.9259   35.3043 C   0  0  0  0  0  0  0  0  0  0  0  0
   31.0421   33.2070   35.6835 C   0  0  0  0  0  0  0  0  0  0  0  0
   30.2681   33.6936   34.4303 C   0  0  0  0  0  0  0  0  0  0  0  0
   32.0136   34.3317   36.1442 C   0  0  0  0  0  0  0  0  0  0  0  0
   30.0594   32.8284   36.7493 N   0  0  0  0  0  0  0  0  0  0  0  0
   30.6128   32.3350   38.0247 C   0  0  0  0  0  0  0  0  0  0  0  0
   29.7884   32.9345   39.1547 C   0  0  0  0  0  0  0  0  0  0  0  0
   28.5581   33.5050   38.4873 C   0  0  0  0  0  0  0  0  0  0  0  0
   29.0050   33.8015   37.0725 C   0  0  0  0  0  0  0  0  0  0  0  0
   32.3044   31.5099   32.7792 C   0  0  0  0  0  0  0  0  0  0  0  0
  1  2  1  0
  2  3  2  0
  2  4  1  0
  4  5  2  0
  5  6  1  0
  6  7  2  0
  7  8  1  0
  8  9  2  0
  9 10  1  0
 10 11  2  0
 11 12  1  0
 12 13  2  0
 13 14  1  0
  9 15  1  0
 15 16  2  0
 15 17  2  0
 18 15  1  1
 18 19  1  0
 19 20  1  1
 20 21  1  0
 21 22  1  0
 21 23  1  0
 21 24  1  0
 24 25  1  0
 25 26  1  0
 26 27  1  0
 27 28  1  0
 19 29  1  0
 13  4  1  0
 29 18  1  0
 12  7  1  0
 28 24  1  0
M  END
>  <AAScore>  (1) 
38.67267392946693

>  <RootName>  (1) 
./4ZLY/04_DeltaGEst/trajectory_05/rank_01/lead_0499

$$$$
