confid_9
     RDKit          3D

 28 30  0  0  0  0  0  0  0  0999 V2000
   24.5700   26.8800   35.5900 N   0  0  0  0  0  0  0  0  0  0  0  0
   25.5000   26.4000   34.6900 C   0  0  0  0  0  0  0  0  0  0  0  0
   25.1700   25.5200   33.9100 O   0  0  0  0  0  0  0  0  0  0  0  0
   26.8400   27.0200   34.7400 C   0  0  0  0  0  0  0  0  0  0  0  0
   27.3800   27.2800   35.9400 N   0  0  0  0  0  0  0  0  0  0  0  0
   28.6200   27.7400   36.0300 N   0  0  0  0  0  0  0  0  0  0  0  0
   29.3800   28.0000   34.9600 C   0  0  0  0  0  0  0  0  0  0  0  0
   30.6700   28.5000   35.1300 C   0  0  0  0  0  0  0  0  0  0  0  0
   31.5400   28.6100   34.0300 C   0  0  0  0  0  0  0  0  0  0  0  0
   31.0900   28.2200   32.7700 C   0  0  0  0  0  0  0  0  0  0  0  0
   29.8000   27.7000   32.6000 C   0  0  0  0  0  0  0  0  0  0  0  0
   28.9600   27.5500   33.7100 C   0  0  0  0  0  0  0  0  0  0  0  0
   27.6600   27.0300   33.5900 C   0  0  0  0  0  0  0  0  0  0  0  0
   27.1600   26.7400   32.3400 N   0  0  0  0  0  0  0  0  0  0  0  0
   33.1427   29.3120   34.2301 S   0  0  0  0  0  6  0  0  0  0  0  0
   34.0590   28.8031   33.1523 O   0  0  0  0  0  0  0  0  0  0  0  0
   33.7046   28.9118   35.5653 O   0  0  0  0  0  0  0  0  0  0  0  0
   33.0391   31.0921   34.1373 C   0  0  0  0  0  0  0  0  0  0  0  0
   32.2521   31.5063   32.9248 C   0  0  0  0  0  0  0  0  0  0  0  0
   30.8721   31.7408   33.0247 C   0  0  0  0  0  0  0  0  0  0  0  0
   30.1260   32.0426   31.8844 C   0  0  0  0  0  0  0  0  0  0  0  0
   30.7491   32.1166   30.6364 C   0  0  0  0  0  0  0  0  0  0  0  0
   32.1337   31.9042   30.5188 C   0  0  0  0  0  0  0  0  0  0  0  0
   32.7973   31.9214   29.1649 C   0  0  0  0  0  0  0  0  0  0  0  0
   32.7690   30.6476   28.6286 F   0  0  0  0  0  0  0  0  0  0  0  0
   34.1133   32.3366   29.2726 F   0  0  0  0  0  0  0  0  0  0  0  0
   32.1399   32.7866   28.3074 F   0  0  0  0  0  0  0  0  0  0  0  0
   32.8743   31.5738   31.6678 C   0  0  0  0  0  0  0  0  0  0  0  0
  1  2  1  0
  2  3  2  0
  2  4  1  0
  4  5  2  0
  5  6  1  0
  6  7  2  0
  7  8  1  0
  8  9  2  0
  9 10  1  0
 10 11  2  0
 11 12  1  0
 12 13  2  0
 13 14  1  0
  9 15  1  0
 15 16  2  0
 15 17  2  0
 15 18  1  0
 18 19  1  0
 19 20  2  0
 20 21  1  0
 21 22  2  0
 22 23  1  0
 23 24  1  0
 24 25  1  0
 24 26  1  0
 24 27  1  0
 23 28  2  0
 13  4  1  0
 28 19  1  0
 12  7  1  0
M  END
>  <AAScore>  (1) 
-5.614697395619595

>  <RootName>  (1) 
./4ZLY/04_DeltaGEst/trajectory_05/rank_01/lead_0288

$$$$
