confid_8
     RDKit          3D

 27 29  0  0  0  0  0  0  0  0999 V2000
   24.6900   26.1200   35.5300 N   0  0  0  0  0  0  0  0  0  0  0  0
   25.6600   25.6700   34.6600 C   0  0  0  0  0  0  0  0  0  0  0  0
   25.2400   25.0100   33.7200 O   0  0  0  0  0  0  0  0  0  0  0  0
   27.0300   26.2200   34.8800 C   0  0  0  0  0  0  0  0  0  0  0  0
   27.3500   26.7300   36.0700 N   0  0  0  0  0  0  0  0  0  0  0  0
   28.5700   27.1800   36.3300 N   0  0  0  0  0  0  0  0  0  0  0  0
   29.5300   27.1100   35.3900 C   0  0  0  0  0  0  0  0  0  0  0  0
   30.8300   27.5700   35.6500 C   0  0  0  0  0  0  0  0  0  0  0  0
   31.8500   27.5400   34.6900 C   0  0  0  0  0  0  0  0  0  0  0  0
   31.5100   27.1200   33.4000 C   0  0  0  0  0  0  0  0  0  0  0  0
   30.2200   26.6300   33.1100 C   0  0  0  0  0  0  0  0  0  0  0  0
   29.2400   26.6600   34.1000 C   0  0  0  0  0  0  0  0  0  0  0  0
   27.9300   26.2600   33.8100 C   0  0  0  0  0  0  0  0  0  0  0  0
   27.5200   25.7100   32.6100 N   0  0  0  0  0  0  0  0  0  0  0  0
   31.1446   28.0799   36.9560 N   0  0  0  0  0  0  0  0  0  0  0  0
   31.1987   27.1775   38.1111 C   0  0  0  0  0  0  0  0  0  0  0  0
   30.4289   27.7902   39.2878 C   0  0  0  0  0  0  0  0  0  0  0  0
   30.7042   29.2315   39.4487 N   0  0  0  0  0  0  0  0  0  0  0  0
   30.0118   29.9358   40.5112 C   0  0  0  0  0  0  0  0  0  0  0  0
   29.3159   29.2747   41.3312 O   0  0  0  0  0  0  0  0  0  0  0  0
   30.0281   31.4431   40.6709 C   0  0  0  0  0  0  0  0  0  0  0  0
   31.0104   31.9655   41.7625 C   0  0  0  0  0  0  0  0  0  0  0  0
   32.4673   31.5736   41.4427 C   0  0  0  0  0  0  0  0  0  0  0  0
   30.6295   31.4102   43.1524 C   0  0  0  0  0  0  0  0  0  0  0  0
   30.9149   33.5051   41.8064 C   0  0  0  0  0  0  0  0  0  0  0  0
   31.7196   29.8578   38.5824 C   0  0  0  0  0  0  0  0  0  0  0  0
   31.4472   29.5073   37.1155 C   0  0  0  0  0  0  0  0  0  0  0  0
  1  2  1  0
  2  3  2  0
  2  4  1  0
  4  5  2  0
  5  6  1  0
  6  7  2  0
  7  8  1  0
  8  9  2  0
  9 10  1  0
 10 11  2  0
 11 12  1  0
 12 13  2  0
 13 14  1  0
  8 15  1  0
 15 16  1  0
 16 17  1  0
 17 18  1  0
 18 19  1  0
 19 20  2  0
 19 21  1  0
 21 22  1  0
 22 23  1  0
 22 24  1  0
 22 25  1  0
 18 26  1  0
 26 27  1  0
 13  4  1  0
 27 15  1  0
 12  7  1  0
M  END
>  <AAScore>  (1) 
-5.995488609253608

>  <RootName>  (1) 
./4ZLY/04_DeltaGEst/trajectory_02/rank_01/lead_0401

$$$$
