confid_13
     RDKit          3D

 28 31  0  0  0  0  0  0  0  0999 V2000
   24.6900   26.1200   35.5300 N   0  0  0  0  0  0  0  0  0  0  0  0
   25.6600   25.6700   34.6600 C   0  0  0  0  0  0  0  0  0  0  0  0
   25.2400   25.0100   33.7200 O   0  0  0  0  0  0  0  0  0  0  0  0
   27.0300   26.2200   34.8800 C   0  0  0  0  0  0  0  0  0  0  0  0
   27.3500   26.7300   36.0700 N   0  0  0  0  0  0  0  0  0  0  0  0
   28.5700   27.1800   36.3300 N   0  0  0  0  0  0  0  0  0  0  0  0
   29.5300   27.1100   35.3900 C   0  0  0  0  0  0  0  0  0  0  0  0
   30.8300   27.5700   35.6500 C   0  0  0  0  0  0  0  0  0  0  0  0
   31.8500   27.5400   34.6900 C   0  0  0  0  0  0  0  0  0  0  0  0
   31.5100   27.1200   33.4000 C   0  0  0  0  0  0  0  0  0  0  0  0
   30.2200   26.6300   33.1100 C   0  0  0  0  0  0  0  0  0  0  0  0
   29.2400   26.6600   34.1000 C   0  0  0  0  0  0  0  0  0  0  0  0
   27.9300   26.2600   33.8100 C   0  0  0  0  0  0  0  0  0  0  0  0
   27.5200   25.7100   32.6100 N   0  0  0  0  0  0  0  0  0  0  0  0
   23.2980   26.2807   35.1918 C   0  0  0  0  0  0  0  0  0  0  0  0
   22.8948   26.3047   33.8899 N   0  0  0  0  0  0  0  0  0  0  0  0
   21.5905   26.4535   33.5376 C   0  0  0  0  0  0  0  0  0  0  0  0
   20.6053   26.5905   34.5245 C   0  0  0  0  0  0  0  0  0  0  0  0
   19.1404   26.6321   34.1533 C   0  0  0  0  0  0  0  0  0  0  0  0
   18.5713   27.9895   34.1546 N   0  0  0  0  0  0  0  0  0  0  0  0
   17.2802   28.2052   33.4994 C   0  0  0  0  0  0  0  0  0  0  0  0
   19.2089   29.1314   34.7602 C   0  0  0  0  0  0  0  0  0  0  0  0
   19.3619   30.1766   34.0724 O   0  0  0  0  0  0  0  0  0  0  0  0
   19.6405   29.1724   36.2049 C   0  0  0  0  0  0  0  0  0  0  0  0
   19.3349   27.9343   37.0092 C   0  0  0  0  0  0  0  0  0  0  0  0
   20.0340   26.8424   36.9040 N   0  0  0  0  0  0  0  0  0  0  0  0
   21.0020   26.6254   35.8720 C   0  0  0  0  0  0  0  0  0  0  0  0
   22.3472   26.4501   36.2073 C   0  0  0  0  0  0  0  0  0  0  0  0
  1  2  1  0
  2  3  2  0
  2  4  1  0
  4  5  2  0
  5  6  1  0
  6  7  2  0
  7  8  1  0
  8  9  2  0
  9 10  1  0
 10 11  2  0
 11 12  1  0
 12 13  2  0
 13 14  1  0
  1 15  1  0
 15 16  2  0
 16 17  1  0
 17 18  2  0
 18 19  1  0
 19 20  1  0
 20 21  1  0
 20 22  1  0
 22 23  2  0
 22 24  1  0
 24 25  1  0
 25 26  2  0
 26 27  1  0
 27 28  2  0
 13  4  1  0
 28 15  1  0
 12  7  1  0
 27 18  1  0
M  END
>  <AAScore>  (1) 
251.8026149113603

>  <RootName>  (1) 
./4ZLY/04_DeltaGEst/trajectory_02/rank_00/lead_0477

$$$$
