confid_12
     RDKit          3D

 31 35  0  0  0  0  0  0  0  0999 V2000
   24.5500   26.3900   36.2500 N   0  0  0  0  0  0  0  0  0  0  0  0
   25.6000   26.1300   35.4000 C   0  0  0  0  0  0  0  0  0  0  0  0
   25.4300   25.4300   34.4200 O   0  0  0  0  0  0  0  0  0  0  0  0
   26.9800   26.6300   35.7100 C   0  0  0  0  0  0  0  0  0  0  0  0
   27.3200   26.8200   36.9800 N   0  0  0  0  0  0  0  0  0  0  0  0
   28.4700   27.4000   37.3100 N   0  0  0  0  0  0  0  0  0  0  0  0
   29.4000   27.6300   36.3700 C   0  0  0  0  0  0  0  0  0  0  0  0
   30.6600   28.0500   36.8000 C   0  0  0  0  0  0  0  0  0  0  0  0
   31.5700   28.3600   35.7800 C   0  0  0  0  0  0  0  0  0  0  0  0
   31.3700   28.1000   34.4300 C   0  0  0  0  0  0  0  0  0  0  0  0
   30.1200   27.5900   34.0500 C   0  0  0  0  0  0  0  0  0  0  0  0
   29.1500   27.3400   35.0300 C   0  0  0  0  0  0  0  0  0  0  0  0
   27.8800   26.8900   34.6600 C   0  0  0  0  0  0  0  0  0  0  0  0
   27.4800   26.6100   33.3700 N   0  0  0  0  0  0  0  0  0  0  0  0
   23.2408   25.8369   36.0607 C   0  0  0  0  0  0  0  0  0  0  0  0
   22.2186   26.6362   36.1767 N   0  0  0  0  0  0  0  0  0  0  0  0
   20.8272   26.3598   35.9733 C   0  0  0  0  0  0  0  0  0  0  0  0
   20.3978   25.7589   34.8689 C   0  0  0  0  0  0  0  0  0  0  0  0
   19.1260   25.6383   34.0843 C   0  0  0  0  0  0  0  0  0  0  0  0
   19.7102   24.9852   33.0004 O   0  0  0  0  0  0  0  0  0  0  0  0
   20.9277   25.0150   33.6758 C   0  0  2  0  0  0  0  0  0  0  0  0
   21.3742   23.5869   34.0053 C   0  0  0  0  0  0  0  0  0  0  0  0
   22.3709   23.5132   35.1190 C   0  0  0  0  0  0  0  0  0  0  0  0
   23.1032   24.3697   35.9304 C   0  0  0  0  0  0  0  0  0  0  0  0
   23.7666   23.2529   36.6302 N   0  0  0  0  0  0  0  0  0  0  0  0
   23.0225   22.4215   35.7815 C   0  0  0  0  0  0  0  0  0  0  0  0
   23.9289   21.6108   34.8392 C   0  0  0  0  0  0  0  0  0  0  0  0
   22.0367   21.5406   36.5687 C   0  0  0  0  0  0  0  0  0  0  0  0
   24.6627   23.0635   37.7317 C   0  0  0  0  0  0  0  0  0  0  0  0
   25.0445   21.9006   38.0308 O   0  0  0  0  0  0  0  0  0  0  0  0
   25.1665   24.2249   38.5204 C   0  0  0  0  0  0  0  0  0  0  0  0
  1  2  1  0
  2  3  2  0
  2  4  1  0
  4  5  2  0
  5  6  1  0
  6  7  2  0
  7  8  1  0
  8  9  2  0
  9 10  1  0
 10 11  2  0
 11 12  1  0
 12 13  2  0
 13 14  1  0
  1 15  1  0
 15 16  2  0
 16 17  1  0
 17 18  2  0
 18 19  1  0
 19 20  1  0
 20 21  1  0
 21 22  1  1
 22 23  1  0
 23 24  2  0
 24 25  1  0
 25 26  1  0
 26 27  1  0
 26 28  1  0
 25 29  1  0
 29 30  2  0
 29 31  1  0
 13  4  1  0
 24 15  1  0
 12  7  1  0
 21 18  1  0
 26 23  1  0
M  END
>  <AAScore>  (1) 
1527.1386300420354

>  <RootName>  (1) 
./4ZLY/04_DeltaGEst/trajectory_01/rank_00/lead_0089

$$$$
