confid_18
     RDKit          3D

 28 31  0  0  0  0  0  0  0  0999 V2000
   24.5700   26.8800   35.5900 N   0  0  0  0  0  0  0  0  0  0  0  0
   25.5000   26.4000   34.6900 C   0  0  0  0  0  0  0  0  0  0  0  0
   25.1700   25.5200   33.9100 O   0  0  0  0  0  0  0  0  0  0  0  0
   26.8400   27.0200   34.7400 C   0  0  0  0  0  0  0  0  0  0  0  0
   27.3800   27.2800   35.9400 N   0  0  0  0  0  0  0  0  0  0  0  0
   28.6200   27.7400   36.0300 N   0  0  0  0  0  0  0  0  0  0  0  0
   29.3800   28.0000   34.9600 C   0  0  0  0  0  0  0  0  0  0  0  0
   30.6700   28.5000   35.1300 C   0  0  0  0  0  0  0  0  0  0  0  0
   31.5400   28.6100   34.0300 C   0  0  0  0  0  0  0  0  0  0  0  0
   31.0900   28.2200   32.7700 C   0  0  0  0  0  0  0  0  0  0  0  0
   29.8000   27.7000   32.6000 C   0  0  0  0  0  0  0  0  0  0  0  0
   28.9600   27.5500   33.7100 C   0  0  0  0  0  0  0  0  0  0  0  0
   27.6600   27.0300   33.5900 C   0  0  0  0  0  0  0  0  0  0  0  0
   27.1600   26.7400   32.3400 N   0  0  0  0  0  0  0  0  0  0  0  0
   33.1600   29.2675   34.2575 S   0  0  0  0  0  6  0  0  0  0  0  0
   33.7890   28.5592   35.4252 O   0  0  0  0  0  0  0  0  0  0  0  0
   34.0006   28.9851   33.0431 O   0  0  0  0  0  0  0  0  0  0  0  0
   33.1126   31.0334   34.6305 C   0  0  0  0  0  0  0  0  0  0  0  0
   33.8813   31.9404   33.6734 C   0  0  0  0  0  0  0  0  0  0  0  0
   32.6715   32.6869   33.2995 N   0  0  0  0  0  0  0  0  0  0  0  0
   32.3655   32.7107   31.8409 C   0  0  2  0  0  0  0  0  0  0  0  0
   31.2091   33.7009   31.5805 C   0  0  0  0  0  0  0  0  0  0  0  0
   31.5332   35.1142   32.0681 C   0  0  0  0  0  0  0  0  0  0  0  0
   32.0482   31.3307   31.1932 C   0  0  0  0  0  0  0  0  0  0  0  0
   32.2583   31.3639   29.6700 C   0  0  0  0  0  0  0  0  0  0  0  0
   31.7056   30.1482   28.9410 C   0  0  0  0  0  0  0  0  0  0  0  0
   31.0078   31.4923   28.8105 C   0  0  0  0  0  0  0  0  0  0  0  0
   31.8765   31.7891   34.1496 C   0  0  0  0  0  0  0  0  0  0  0  0
  1  2  1  0
  2  3  2  0
  2  4  1  0
  4  5  2  0
  5  6  1  0
  6  7  2  0
  7  8  1  0
  8  9  2  0
  9 10  1  0
 10 11  2  0
 11 12  1  0
 12 13  2  0
 13 14  1  0
  9 15  1  0
 15 16  2  0
 15 17  2  0
 15 18  1  0
 18 19  1  0
 19 20  1  0
 20 21  1  0
 21 22  1  1
 22 23  1  0
 21 24  1  0
 24 25  1  0
 25 26  1  0
 26 27  1  0
 20 28  1  0
 13  4  1  0
 28 18  1  0
 12  7  1  0
 27 25  1  0
M  END
>  <AAScore>  (1) 
167.9377725959678

>  <RootName>  (1) 
./4ZLY/04_DeltaGEst/trajectory_05/rank_01/lead_0028

$$$$
