confid_19
     RDKit          3D

 28 30  0  0  0  0  0  0  0  0999 V2000
   24.5700   26.8800   35.5900 N   0  0  0  0  0  0  0  0  0  0  0  0
   25.5000   26.4000   34.6900 C   0  0  0  0  0  0  0  0  0  0  0  0
   25.1700   25.5200   33.9100 O   0  0  0  0  0  0  0  0  0  0  0  0
   26.8400   27.0200   34.7400 C   0  0  0  0  0  0  0  0  0  0  0  0
   27.3800   27.2800   35.9400 N   0  0  0  0  0  0  0  0  0  0  0  0
   28.6200   27.7400   36.0300 N   0  0  0  0  0  0  0  0  0  0  0  0
   29.3800   28.0000   34.9600 C   0  0  0  0  0  0  0  0  0  0  0  0
   30.6700   28.5000   35.1300 C   0  0  0  0  0  0  0  0  0  0  0  0
   31.5400   28.6100   34.0300 C   0  0  0  0  0  0  0  0  0  0  0  0
   31.0900   28.2200   32.7700 C   0  0  0  0  0  0  0  0  0  0  0  0
   29.8000   27.7000   32.6000 C   0  0  0  0  0  0  0  0  0  0  0  0
   28.9600   27.5500   33.7100 C   0  0  0  0  0  0  0  0  0  0  0  0
   27.6600   27.0300   33.5900 C   0  0  0  0  0  0  0  0  0  0  0  0
   27.1600   26.7400   32.3400 N   0  0  0  0  0  0  0  0  0  0  0  0
   33.1590   29.2665   34.2486 S   0  0  0  0  0  6  0  0  0  0  0  0
   33.7695   28.6710   35.4863 O   0  0  0  0  0  0  0  0  0  0  0  0
   34.0202   28.9103   33.0688 O   0  0  0  0  0  0  0  0  0  0  0  0
   33.0558   31.0492   34.4259 C   0  0  2  0  0  0  0  0  0  0  0  0
   32.5187   31.7404   33.1619 C   0  0  0  0  0  0  0  0  0  0  0  0
   33.5489   32.6764   32.6723 N   0  0  0  0  0  0  0  0  0  0  0  0
   34.3665   32.9649   33.8715 C   0  0  2  0  0  0  0  0  0  0  0  0
   35.7709   33.5702   33.6144 C   0  0  0  0  0  0  0  0  0  0  0  0
   35.7141   35.0194   33.1127 C   0  0  0  0  0  0  0  0  0  0  0  0
   35.1607   35.8360   34.0829 F   0  0  0  0  0  0  0  0  0  0  0  0
   36.9974   35.4588   32.8439 F   0  0  0  0  0  0  0  0  0  0  0  0
   34.9601   35.1175   31.9582 F   0  0  0  0  0  0  0  0  0  0  0  0
   34.4171   31.6792   34.6825 C   0  0  0  0  0  0  0  0  0  0  0  0
   34.3059   32.0498   31.5669 C   0  0  0  0  0  0  0  0  0  0  0  0
  1  2  1  0
  2  3  2  0
  2  4  1  0
  4  5  2  0
  5  6  1  0
  6  7  2  0
  7  8  1  0
  8  9  2  0
  9 10  1  0
 10 11  2  0
 11 12  1  0
 12 13  2  0
 13 14  1  0
  9 15  1  0
 15 16  2  0
 15 17  2  0
 18 15  1  6
 18 19  1  0
 19 20  1  0
 20 21  1  0
 21 22  1  6
 22 23  1  0
 23 24  1  0
 23 25  1  0
 23 26  1  0
 21 27  1  0
 20 28  1  0
 13  4  1  0
 27 18  1  0
 12  7  1  0
M  END
>  <AAScore>  (1) 
-5.570582971569367

>  <RootName>  (1) 
./4ZLY/04_DeltaGEst/trajectory_05/rank_01/lead_0058

$$$$
