confid_10
     RDKit          3D

 27 30  0  0  0  0  0  0  0  0999 V2000
   25.3300   26.2600   34.7600 N   0  0  0  0  0  0  0  0  0  0  0  0
   26.1200   25.9200   33.6900 C   0  0  0  0  0  0  0  0  0  0  0  0
   25.6300   25.1100   32.9400 O   0  0  0  0  0  0  0  0  0  0  0  0
   27.5200   26.3800   33.4600 C   0  0  0  0  0  0  0  0  0  0  0  0
   28.1600   26.6300   34.6100 N   0  0  0  0  0  0  0  0  0  0  0  0
   29.4800   26.8500   34.5700 N   0  0  0  0  0  0  0  0  0  0  0  0
   30.1900   26.7800   33.4400 C   0  0  0  0  0  0  0  0  0  0  0  0
   31.5600   27.0500   33.5000 C   0  0  0  0  0  0  0  0  0  0  0  0
   32.2700   27.2400   32.3100 C   0  0  0  0  0  0  0  0  0  0  0  0
   31.6100   27.2500   31.0800 C   0  0  0  0  0  0  0  0  0  0  0  0
   30.2700   26.8700   31.0600 C   0  0  0  0  0  0  0  0  0  0  0  0
   29.5100   26.6900   32.2300 C   0  0  0  0  0  0  0  0  0  0  0  0
   28.1400   26.4100   32.2000 C   0  0  0  0  0  0  0  0  0  0  0  0
   27.4300   26.1300   31.0500 N   0  0  0  0  0  0  0  0  0  0  0  0
   27.6447   24.8195   30.4026 C   0  0  0  0  0  0  0  0  0  0  0  0
   27.0520   24.7308   28.9930 C   0  0  0  0  0  0  0  0  0  0  0  0
   27.4565   25.8937   28.2023 N   0  0  0  0  0  0  0  0  0  0  0  0
   28.7374   25.9351   27.5386 C   0  0  0  0  0  0  0  0  0  0  0  0
   29.5888   25.0344   27.7728 O   0  0  0  0  0  0  0  0  0  0  0  0
   29.1016   27.0216   26.6064 C   0  0  0  0  0  0  0  0  0  0  0  0
   30.3850   27.3500   26.2140 C   0  0  0  0  0  0  0  0  0  0  0  0
   30.3398   28.3438   25.3574 O   0  0  0  0  0  0  0  0  0  0  0  0
   29.0856   28.6807   25.1608 C   0  0  0  0  0  0  0  0  0  0  0  0
   28.2604   27.8774   25.9202 C   0  0  0  0  0  0  0  0  0  0  0  0
   26.6021   26.9512   28.1454 O   0  0  0  0  0  0  0  0  0  0  0  0
   26.8706   27.7702   29.2626 C   0  0  0  0  0  0  0  0  0  0  0  0
   26.4302   27.1064   30.5766 C   0  0  0  0  0  0  0  0  0  0  0  0
  1  2  1  0
  2  3  2  0
  2  4  1  0
  4  5  2  0
  5  6  1  0
  6  7  2  0
  7  8  1  0
  8  9  2  0
  9 10  1  0
 10 11  2  0
 11 12  1  0
 12 13  2  0
 13 14  1  0
 14 15  1  0
 15 16  1  0
 16 17  1  0
 17 18  1  0
 18 19  2  0
 18 20  1  0
 20 21  2  0
 21 22  1  0
 22 23  1  0
 23 24  2  0
 17 25  1  0
 25 26  1  0
 26 27  1  0
 13  4  1  0
 27 14  1  0
 12  7  1  0
 24 20  1  0
M  END
>  <AAScore>  (1) 
1.9104344915387417

>  <RootName>  (1) 
./4ZLY/04_DeltaGEst/trajectory_03/rank_01/lead_0261

$$$$
