confid_16
     RDKit          3D

 27 30  0  0  0  0  0  0  0  0999 V2000
   24.6900   26.1200   35.5300 N   0  0  0  0  0  0  0  0  0  0  0  0
   25.6600   25.6700   34.6600 C   0  0  0  0  0  0  0  0  0  0  0  0
   25.2400   25.0100   33.7200 O   0  0  0  0  0  0  0  0  0  0  0  0
   27.0300   26.2200   34.8800 C   0  0  0  0  0  0  0  0  0  0  0  0
   27.3500   26.7300   36.0700 N   0  0  0  0  0  0  0  0  0  0  0  0
   28.5700   27.1800   36.3300 N   0  0  0  0  0  0  0  0  0  0  0  0
   29.5300   27.1100   35.3900 C   0  0  0  0  0  0  0  0  0  0  0  0
   30.8300   27.5700   35.6500 C   0  0  0  0  0  0  0  0  0  0  0  0
   31.8500   27.5400   34.6900 C   0  0  0  0  0  0  0  0  0  0  0  0
   31.5100   27.1200   33.4000 C   0  0  0  0  0  0  0  0  0  0  0  0
   30.2200   26.6300   33.1100 C   0  0  0  0  0  0  0  0  0  0  0  0
   29.2400   26.6600   34.1000 C   0  0  0  0  0  0  0  0  0  0  0  0
   27.9300   26.2600   33.8100 C   0  0  0  0  0  0  0  0  0  0  0  0
   27.5200   25.7100   32.6100 N   0  0  0  0  0  0  0  0  0  0  0  0
   31.1932   28.0744   36.9975 C   0  0  0  0  0  0  0  0  0  0  0  0
   30.8095   27.5050   38.2229 C   0  0  0  0  0  0  0  0  0  0  0  0
   31.3553   28.2100   39.2909 C   0  0  0  0  0  0  0  0  0  0  0  0
   31.3004   28.0619   40.7569 C   0  0  0  0  0  0  0  0  0  0  0  0
   32.2332   29.1043   41.2748 N   0  0  0  0  0  0  0  0  0  0  0  0
   33.3539   28.5439   42.0650 C   0  0  0  0  0  0  0  0  0  0  0  0
   34.3482   27.6769   41.2506 C   0  0  0  0  0  0  0  0  0  0  0  0
   35.0848   26.7509   42.1384 N   0  0  0  0  0  0  0  0  0  0  0  0
   35.7032   25.6754   41.3459 C   0  0  0  0  0  0  0  0  0  0  0  0
   36.1296   27.4623   42.8964 C   0  0  0  0  0  0  0  0  0  0  0  0
   32.6709   29.9426   40.1242 C   0  0  0  0  0  0  0  0  0  0  0  0
   32.1185   29.2510   38.9521 C   0  0  0  0  0  0  0  0  0  0  0  0
   32.2080   29.4179   37.2888 S   0  0  0  0  0  0  0  0  0  0  0  0
  1  2  1  0
  2  3  2  0
  2  4  1  0
  4  5  2  0
  5  6  1  0
  6  7  2  0
  7  8  1  0
  8  9  2  0
  9 10  1  0
 10 11  2  0
 11 12  1  0
 12 13  2  0
 13 14  1  0
  8 15  1  0
 15 16  2  0
 16 17  1  0
 17 18  1  0
 18 19  1  0
 19 20  1  0
 20 21  1  0
 21 22  1  0
 22 23  1  0
 22 24  1  0
 19 25  1  0
 25 26  1  0
 26 27  1  0
 13  4  1  0
 27 15  1  0
 12  7  1  0
 26 17  2  0
M  END
>  <AAScore>  (1) 
270.7870755887692

>  <RootName>  (1) 
./4ZLY/04_DeltaGEst/trajectory_02/rank_01/lead_0297

$$$$
