confid_13
     RDKit          3D

 28 32  0  0  0  0  0  0  0  0999 V2000
   24.2000   26.2400   35.6900 N   0  0  0  0  0  0  0  0  0  0  0  0
   24.8500   26.2800   34.4800 C   0  0  0  0  0  0  0  0  0  0  0  0
   24.3100   25.7400   33.5400 O   0  0  0  0  0  0  0  0  0  0  0  0
   26.1800   26.9700   34.4700 C   0  0  0  0  0  0  0  0  0  0  0  0
   26.6500   27.6000   35.5500 N   0  0  0  0  0  0  0  0  0  0  0  0
   27.7900   28.2700   35.6200 N   0  0  0  0  0  0  0  0  0  0  0  0
   28.5400   28.3000   34.5100 C   0  0  0  0  0  0  0  0  0  0  0  0
   29.7700   28.9400   34.5600 C   0  0  0  0  0  0  0  0  0  0  0  0
   30.7000   28.8900   33.5000 C   0  0  0  0  0  0  0  0  0  0  0  0
   30.3700   28.1400   32.3700 C   0  0  0  0  0  0  0  0  0  0  0  0
   29.1200   27.5200   32.2800 C   0  0  0  0  0  0  0  0  0  0  0  0
   28.2100   27.6100   33.3300 C   0  0  0  0  0  0  0  0  0  0  0  0
   26.9700   26.9700   33.3100 C   0  0  0  0  0  0  0  0  0  0  0  0
   26.5300   26.2400   32.2200 N   0  0  0  0  0  0  0  0  0  0  0  0
   22.7741   26.1391   35.8118 C   0  0  0  0  0  0  0  0  0  0  0  0
   22.2788   25.5031   36.8427 N   0  0  0  0  0  0  0  0  0  0  0  0
   20.8817   25.3980   37.1357 C   0  0  0  0  0  0  0  0  0  0  0  0
   20.0344   24.9186   36.2366 C   0  0  0  0  0  0  0  0  0  0  0  0
   18.5714   24.9248   35.9303 C   0  0  0  0  0  0  0  0  0  0  0  0
   18.7042   24.3433   34.6646 O   0  0  0  0  0  0  0  0  0  0  0  0
   20.0652   24.2256   34.8995 C   0  0  1  0  0  0  0  0  0  0  0  0
   20.9177   24.9153   33.8196 C   0  0  0  0  0  0  0  0  0  0  0  0
   21.0543   26.4102   34.0078 C   0  0  0  0  0  0  0  0  0  0  0  0
   21.9104   26.9450   34.9002 C   0  0  0  0  0  0  0  0  0  0  0  0
   21.9102   28.4386   35.0437 C   0  0  0  0  0  0  0  0  0  0  0  0
   20.5248   28.9244   35.1508 N   0  0  0  0  0  0  0  0  0  0  0  0
   19.6540   28.5060   34.0274 C   0  0  0  0  0  0  0  0  0  0  0  0
   20.2228   27.3489   33.1745 C   0  0  0  0  0  0  0  0  0  0  0  0
  1  2  1  0
  2  3  2  0
  2  4  1  0
  4  5  2  0
  5  6  1  0
  6  7  2  0
  7  8  1  0
  8  9  2  0
  9 10  1  0
 10 11  2  0
 11 12  1  0
 12 13  2  0
 13 14  1  0
  1 15  1  0
 15 16  2  0
 16 17  1  0
 17 18  2  0
 18 19  1  0
 19 20  1  0
 20 21  1  0
 21 22  1  6
 22 23  1  0
 23 24  2  0
 24 25  1  0
 25 26  1  0
 26 27  1  0
 27 28  1  0
 13  4  1  0
 24 15  1  0
 12  7  1  0
 21 18  1  0
 28 23  1  0
M  END
>  <AAScore>  (1) 
6432.901572521916

>  <RootName>  (1) 
./4ZLY/04_DeltaGEst/trajectory_04/rank_00/lead_0296

$$$$
