confid_3
     RDKit          3D

 26 29  0  0  0  0  0  0  0  0999 V2000
   24.6900   26.1200   35.5300 N   0  0  0  0  0  0  0  0  0  0  0  0
   25.6600   25.6700   34.6600 C   0  0  0  0  0  0  0  0  0  0  0  0
   25.2400   25.0100   33.7200 O   0  0  0  0  0  0  0  0  0  0  0  0
   27.0300   26.2200   34.8800 C   0  0  0  0  0  0  0  0  0  0  0  0
   27.3500   26.7300   36.0700 N   0  0  0  0  0  0  0  0  0  0  0  0
   28.5700   27.1800   36.3300 N   0  0  0  0  0  0  0  0  0  0  0  0
   29.5300   27.1100   35.3900 C   0  0  0  0  0  0  0  0  0  0  0  0
   30.8300   27.5700   35.6500 C   0  0  0  0  0  0  0  0  0  0  0  0
   31.8500   27.5400   34.6900 C   0  0  0  0  0  0  0  0  0  0  0  0
   31.5100   27.1200   33.4000 C   0  0  0  0  0  0  0  0  0  0  0  0
   30.2200   26.6300   33.1100 C   0  0  0  0  0  0  0  0  0  0  0  0
   29.2400   26.6600   34.1000 C   0  0  0  0  0  0  0  0  0  0  0  0
   27.9300   26.2600   33.8100 C   0  0  0  0  0  0  0  0  0  0  0  0
   27.5200   25.7100   32.6100 N   0  0  0  0  0  0  0  0  0  0  0  0
   31.1500   28.0760   36.9576 N   0  0  0  0  0  0  0  0  0  0  0  0
   31.4174   29.5078   37.1344 C   0  0  0  0  0  0  0  0  0  0  0  0
   30.1205   30.2703   37.4386 C   0  0  0  0  0  0  0  0  0  0  0  0
   29.1604   29.5611   38.3645 C   0  0  0  0  0  0  0  0  0  0  0  0
   27.5342   29.9819   38.4834 S   0  0  0  0  0  0  0  0  0  0  0  0
   27.1210   28.8002   39.5982 C   0  0  0  0  0  0  0  0  0  0  0  0
   25.8049   28.5928   40.1333 C   0  0  0  0  0  0  0  0  0  0  0  0
   24.7441   28.4253   40.5641 N   0  0  0  0  0  0  0  0  0  0  0  0
   28.2446   28.0505   39.9071 C   0  0  0  0  0  0  0  0  0  0  0  0
   29.3963   28.4722   39.2221 C   0  0  0  0  0  0  0  0  0  0  0  0
   30.7290   27.7970   39.4041 C   0  0  0  0  0  0  0  0  0  0  0  0
   31.2310   27.1547   38.1006 C   0  0  0  0  0  0  0  0  0  0  0  0
  1  2  1  0
  2  3  2  0
  2  4  1  0
  4  5  2  0
  5  6  1  0
  6  7  2  0
  7  8  1  0
  8  9  2  0
  9 10  1  0
 10 11  2  0
 11 12  1  0
 12 13  2  0
 13 14  1  0
  8 15  1  0
 15 16  1  0
 16 17  1  0
 17 18  1  0
 18 19  1  0
 19 20  1  0
 20 21  1  0
 21 22  3  0
 20 23  2  0
 23 24  1  0
 24 25  1  0
 25 26  1  0
 13  4  1  0
 26 15  1  0
 12  7  1  0
 24 18  2  0
M  END
>  <AAScore>  (1) 
-6.443032027321603

>  <RootName>  (1) 
./4ZLY/04_DeltaGEst/trajectory_02/rank_01/lead_0187

$$$$
