confid_13
     RDKit          3D

 27 30  0  0  0  0  0  0  0  0999 V2000
   24.5500   26.3900   36.2500 N   0  0  0  0  0  0  0  0  0  0  0  0
   25.6000   26.1300   35.4000 C   0  0  0  0  0  0  0  0  0  0  0  0
   25.4300   25.4300   34.4200 O   0  0  0  0  0  0  0  0  0  0  0  0
   26.9800   26.6300   35.7100 C   0  0  0  0  0  0  0  0  0  0  0  0
   27.3200   26.8200   36.9800 N   0  0  0  0  0  0  0  0  0  0  0  0
   28.4700   27.4000   37.3100 N   0  0  0  0  0  0  0  0  0  0  0  0
   29.4000   27.6300   36.3700 C   0  0  0  0  0  0  0  0  0  0  0  0
   30.6600   28.0500   36.8000 C   0  0  0  0  0  0  0  0  0  0  0  0
   31.5700   28.3600   35.7800 C   0  0  0  0  0  0  0  0  0  0  0  0
   31.3700   28.1000   34.4300 C   0  0  0  0  0  0  0  0  0  0  0  0
   30.1200   27.5900   34.0500 C   0  0  0  0  0  0  0  0  0  0  0  0
   29.1500   27.3400   35.0300 C   0  0  0  0  0  0  0  0  0  0  0  0
   27.8800   26.8900   34.6600 C   0  0  0  0  0  0  0  0  0  0  0  0
   27.4800   26.6100   33.3700 N   0  0  0  0  0  0  0  0  0  0  0  0
   31.0180   28.2815   38.2221 C   0  0  0  0  0  0  0  0  0  0  0  0
   30.6264   27.5028   39.3149 C   0  0  0  0  0  0  0  0  0  0  0  0
   31.1592   27.9660   40.5202 C   0  0  0  0  0  0  0  0  0  0  0  0
   30.9391   27.3772   41.7596 O   0  0  0  0  0  0  0  0  0  0  0  0
   31.3223   28.0398   42.9678 C   0  0  0  0  0  0  0  0  0  0  0  0
   32.5231   28.8819   42.7722 N   0  0  0  0  0  0  0  0  0  0  0  0
   33.3930   29.1812   43.8850 C   0  0  0  0  0  0  0  0  0  0  0  0
   34.5908   29.5096   43.6659 O   0  0  0  0  0  0  0  0  0  0  0  0
   32.8937   29.2063   45.3060 C   0  0  0  0  0  0  0  0  0  0  0  0
   32.0680   30.4622   45.5627 C   0  0  0  0  0  0  0  0  0  0  0  0
   32.6775   29.6935   41.5476 C   0  0  0  0  0  0  0  0  0  0  0  0
   31.9681   29.0683   40.3949 C   0  0  0  0  0  0  0  0  0  0  0  0
   32.0430   29.5106   38.7775 S   0  0  0  0  0  0  0  0  0  0  0  0
  1  2  1  0
  2  3  2  0
  2  4  1  0
  4  5  2  0
  5  6  1  0
  6  7  2  0
  7  8  1  0
  8  9  2  0
  9 10  1  0
 10 11  2  0
 11 12  1  0
 12 13  2  0
 13 14  1  0
  8 15  1  0
 15 16  2  0
 16 17  1  0
 17 18  1  0
 18 19  1  0
 19 20  1  0
 20 21  1  0
 21 22  2  0
 21 23  1  0
 23 24  1  0
 20 25  1  0
 25 26  1  0
 26 27  1  0
 13  4  1  0
 27 15  1  0
 12  7  1  0
 26 17  2  0
M  END
>  <AAScore>  (1) 
952.2001005217472

>  <RootName>  (1) 
./4ZLY/04_DeltaGEst/trajectory_01/rank_01/lead_0253

$$$$
