confid_6
     RDKit          3D

 31 35  0  0  0  0  0  0  0  0999 V2000
   24.5500   26.3900   36.2500 N   0  0  0  0  0  0  0  0  0  0  0  0
   25.6000   26.1300   35.4000 C   0  0  0  0  0  0  0  0  0  0  0  0
   25.4300   25.4300   34.4200 O   0  0  0  0  0  0  0  0  0  0  0  0
   26.9800   26.6300   35.7100 C   0  0  0  0  0  0  0  0  0  0  0  0
   27.3200   26.8200   36.9800 N   0  0  0  0  0  0  0  0  0  0  0  0
   28.4700   27.4000   37.3100 N   0  0  0  0  0  0  0  0  0  0  0  0
   29.4000   27.6300   36.3700 C   0  0  0  0  0  0  0  0  0  0  0  0
   30.6600   28.0500   36.8000 C   0  0  0  0  0  0  0  0  0  0  0  0
   31.5700   28.3600   35.7800 C   0  0  0  0  0  0  0  0  0  0  0  0
   31.3700   28.1000   34.4300 C   0  0  0  0  0  0  0  0  0  0  0  0
   30.1200   27.5900   34.0500 C   0  0  0  0  0  0  0  0  0  0  0  0
   29.1500   27.3400   35.0300 C   0  0  0  0  0  0  0  0  0  0  0  0
   27.8800   26.8900   34.6600 C   0  0  0  0  0  0  0  0  0  0  0  0
   27.4800   26.6100   33.3700 N   0  0  0  0  0  0  0  0  0  0  0  0
   23.2384   25.8220   36.0741 C   0  0  0  0  0  0  0  0  0  0  0  0
   22.7445   25.8164   34.8632 N   0  0  0  0  0  0  0  0  0  0  0  0
   21.4587   25.3929   34.4108 C   0  0  0  0  0  0  0  0  0  0  0  0
   20.3431   25.9759   34.8564 C   0  0  0  0  0  0  0  0  0  0  0  0
   20.4094   26.8433   36.0606 C   0  0  0  0  0  0  0  0  0  0  0  0
   20.1912   25.9084   37.1471 N   0  0  0  0  0  0  0  0  0  0  0  0
   18.8820   25.1986   37.1433 C   0  0  0  0  0  0  0  0  0  0  0  0
   18.1314   25.2971   35.7805 C   0  0  0  0  0  0  0  0  0  0  0  0
   19.0700   25.3409   34.6435 N   0  0  0  0  0  0  0  0  0  0  0  0
   18.6410   24.9537   33.2977 C   0  0  0  0  0  0  0  0  0  0  0  0
   21.3101   25.2778   37.8282 C   0  0  0  0  0  0  0  0  0  0  0  0
   22.6331   25.1195   37.2704 C   0  0  0  0  0  0  0  0  0  0  0  0
   23.5606   24.3271   37.9857 C   0  0  0  0  0  0  0  0  0  0  0  0
   23.2501   23.7527   39.2225 C   0  0  0  0  0  0  0  0  0  0  0  0
   21.9912   23.9629   39.7772 C   0  0  0  0  0  0  0  0  0  0  0  0
   21.0396   24.7117   39.0916 C   0  0  0  0  0  0  0  0  0  0  0  0
   24.2606   22.9225   39.9633 C   0  0  0  0  0  0  0  0  0  0  0  0
  1  2  1  0
  2  3  2  0
  2  4  1  0
  4  5  2  0
  5  6  1  0
  6  7  2  0
  7  8  1  0
  8  9  2  0
  9 10  1  0
 10 11  2  0
 11 12  1  0
 12 13  2  0
 13 14  1  0
  1 15  1  0
 15 16  2  0
 16 17  1  0
 17 18  2  0
 18 19  1  0
 19 20  1  0
 20 21  1  0
 21 22  1  0
 22 23  1  0
 23 24  1  0
 20 25  1  0
 25 26  2  0
 26 27  1  0
 27 28  2  0
 28 29  1  0
 29 30  2  0
 28 31  1  0
 13  4  1  0
 26 15  1  0
 12  7  1  0
 23 18  1  0
 30 25  1  0
M  END
>  <AAScore>  (1) 
6271.183915235762

>  <RootName>  (1) 
./4ZLY/04_DeltaGEst/trajectory_01/rank_00/lead_0154

$$$$
