confid_15
     RDKit          3D

 27 30  0  0  0  0  0  0  0  0999 V2000
   25.3300   26.2600   34.7600 N   0  0  0  0  0  0  0  0  0  0  0  0
   26.1200   25.9200   33.6900 C   0  0  0  0  0  0  0  0  0  0  0  0
   25.6300   25.1100   32.9400 O   0  0  0  0  0  0  0  0  0  0  0  0
   27.5200   26.3800   33.4600 C   0  0  0  0  0  0  0  0  0  0  0  0
   28.1600   26.6300   34.6100 N   0  0  0  0  0  0  0  0  0  0  0  0
   29.4800   26.8500   34.5700 N   0  0  0  0  0  0  0  0  0  0  0  0
   30.1900   26.7800   33.4400 C   0  0  0  0  0  0  0  0  0  0  0  0
   31.5600   27.0500   33.5000 C   0  0  0  0  0  0  0  0  0  0  0  0
   32.2700   27.2400   32.3100 C   0  0  0  0  0  0  0  0  0  0  0  0
   31.6100   27.2500   31.0800 C   0  0  0  0  0  0  0  0  0  0  0  0
   30.2700   26.8700   31.0600 C   0  0  0  0  0  0  0  0  0  0  0  0
   29.5100   26.6900   32.2300 C   0  0  0  0  0  0  0  0  0  0  0  0
   28.1400   26.4100   32.2000 C   0  0  0  0  0  0  0  0  0  0  0  0
   27.4300   26.1300   31.0500 N   0  0  0  0  0  0  0  0  0  0  0  0
   27.5866   24.8221   30.4013 C   0  0  0  0  0  0  0  0  0  0  0  0
   26.9869   24.8440   28.9959 C   0  0  0  0  0  0  0  0  0  0  0  0
   27.3440   26.1220   28.3504 N   0  0  0  0  0  0  0  0  0  0  0  0
   27.0754   26.0859   26.8991 C   0  0  0  0  0  0  0  0  0  0  0  0
   28.1267   25.2850   26.1930 C   0  0  0  0  0  0  0  0  0  0  0  0
   29.4057   25.7423   26.1376 N   0  0  0  0  0  0  0  0  0  0  0  0
   30.3811   25.0191   25.5285 C   0  0  0  0  0  0  0  0  0  0  0  0
   30.0764   23.7859   24.9413 C   0  0  0  0  0  0  0  0  0  0  0  0
   31.1480   22.9575   24.2992 C   0  0  0  0  0  0  0  0  0  0  0  0
   28.7586   23.3226   25.0312 C   0  0  0  0  0  0  0  0  0  0  0  0
   27.8147   24.0763   25.6531 N   0  0  0  0  0  0  0  0  0  0  0  0
   26.6272   27.2561   28.9804 C   0  0  0  0  0  0  0  0  0  0  0  0
   26.4840   27.1151   30.5131 C   0  0  0  0  0  0  0  0  0  0  0  0
  1  2  1  0
  2  3  2  0
  2  4  1  0
  4  5  2  0
  5  6  1  0
  6  7  2  0
  7  8  1  0
  8  9  2  0
  9 10  1  0
 10 11  2  0
 11 12  1  0
 12 13  2  0
 13 14  1  0
 14 15  1  0
 15 16  1  0
 16 17  1  0
 17 18  1  0
 18 19  1  0
 19 20  2  0
 20 21  1  0
 21 22  2  0
 22 23  1  0
 22 24  1  0
 24 25  2  0
 17 26  1  0
 26 27  1  0
 13  4  1  0
 27 14  1  0
 12  7  1  0
 25 19  1  0
M  END
>  <AAScore>  (1) 
-2.435367405126222

>  <RootName>  (1) 
./4ZLY/04_DeltaGEst/trajectory_03/rank_01/lead_0471

$$$$
