confid_9
     RDKit          3D

 28 31  0  0  0  0  0  0  0  0999 V2000
   24.6900   26.1200   35.5300 N   0  0  0  0  0  0  0  0  0  0  0  0
   25.6600   25.6700   34.6600 C   0  0  0  0  0  0  0  0  0  0  0  0
   25.2400   25.0100   33.7200 O   0  0  0  0  0  0  0  0  0  0  0  0
   27.0300   26.2200   34.8800 C   0  0  0  0  0  0  0  0  0  0  0  0
   27.3500   26.7300   36.0700 N   0  0  0  0  0  0  0  0  0  0  0  0
   28.5700   27.1800   36.3300 N   0  0  0  0  0  0  0  0  0  0  0  0
   29.5300   27.1100   35.3900 C   0  0  0  0  0  0  0  0  0  0  0  0
   30.8300   27.5700   35.6500 C   0  0  0  0  0  0  0  0  0  0  0  0
   31.8500   27.5400   34.6900 C   0  0  0  0  0  0  0  0  0  0  0  0
   31.5100   27.1200   33.4000 C   0  0  0  0  0  0  0  0  0  0  0  0
   30.2200   26.6300   33.1100 C   0  0  0  0  0  0  0  0  0  0  0  0
   29.2400   26.6600   34.1000 C   0  0  0  0  0  0  0  0  0  0  0  0
   27.9300   26.2600   33.8100 C   0  0  0  0  0  0  0  0  0  0  0  0
   27.5200   25.7100   32.6100 N   0  0  0  0  0  0  0  0  0  0  0  0
   31.1456   28.0602   36.9646 N   0  0  0  0  0  0  0  0  0  0  0  0
   30.6234   29.3585   37.4023 C   0  0  0  0  0  0  0  0  0  0  0  0
   30.3452   29.3189   38.9060 C   0  0  0  0  0  0  0  0  0  0  0  0
   31.5501   28.8622   39.6254 N   0  0  0  0  0  0  0  0  0  0  0  0
   31.4274   29.0045   41.0932 C   0  0  0  0  0  0  0  0  0  0  0  0
   30.3143   28.1787   41.6962 C   0  0  0  0  0  0  0  0  0  0  0  0
   30.4129   26.8561   42.0884 C   0  0  0  0  0  0  0  0  0  0  0  0
   29.2506   26.4386   42.5356 O   0  0  0  0  0  0  0  0  0  0  0  0
   28.3880   27.4264   42.4608 C   0  0  0  0  0  0  0  0  0  0  0  0
   26.9579   27.3107   42.8743 C   0  0  0  0  0  0  0  0  0  0  0  0
   29.0059   28.5574   41.9560 C   0  0  0  0  0  0  0  0  0  0  0  0
   28.3532   29.8767   41.6737 C   0  0  0  0  0  0  0  0  0  0  0  0
   31.9289   27.4951   39.2151 C   0  0  0  0  0  0  0  0  0  0  0  0
   32.2552   27.4714   37.7205 C   0  0  0  0  0  0  0  0  0  0  0  0
  1  2  1  0
  2  3  2  0
  2  4  1  0
  4  5  2  0
  5  6  1  0
  6  7  2  0
  7  8  1  0
  8  9  2  0
  9 10  1  0
 10 11  2  0
 11 12  1  0
 12 13  2  0
 13 14  1  0
  8 15  1  0
 15 16  1  0
 16 17  1  0
 17 18  1  0
 18 19  1  0
 19 20  1  0
 20 21  2  0
 21 22  1  0
 22 23  1  0
 23 24  1  0
 23 25  2  0
 25 26  1  0
 18 27  1  0
 27 28  1  0
 13  4  1  0
 28 15  1  0
 12  7  1  0
 25 20  1  0
M  END
>  <AAScore>  (1) 
-0.5272829088704224

>  <RootName>  (1) 
./4ZLY/04_DeltaGEst/trajectory_02/rank_01/lead_0139

$$$$
