confid_5
     RDKit          3D

 27 31  0  0  0  0  0  0  0  0999 V2000
   24.5500   26.3900   36.2500 N   0  0  0  0  0  0  0  0  0  0  0  0
   25.6000   26.1300   35.4000 C   0  0  0  0  0  0  0  0  0  0  0  0
   25.4300   25.4300   34.4200 O   0  0  0  0  0  0  0  0  0  0  0  0
   26.9800   26.6300   35.7100 C   0  0  0  0  0  0  0  0  0  0  0  0
   27.3200   26.8200   36.9800 N   0  0  0  0  0  0  0  0  0  0  0  0
   28.4700   27.4000   37.3100 N   0  0  0  0  0  0  0  0  0  0  0  0
   29.4000   27.6300   36.3700 C   0  0  0  0  0  0  0  0  0  0  0  0
   30.6600   28.0500   36.8000 C   0  0  0  0  0  0  0  0  0  0  0  0
   31.5700   28.3600   35.7800 C   0  0  0  0  0  0  0  0  0  0  0  0
   31.3700   28.1000   34.4300 C   0  0  0  0  0  0  0  0  0  0  0  0
   30.1200   27.5900   34.0500 C   0  0  0  0  0  0  0  0  0  0  0  0
   29.1500   27.3400   35.0300 C   0  0  0  0  0  0  0  0  0  0  0  0
   27.8800   26.8900   34.6600 C   0  0  0  0  0  0  0  0  0  0  0  0
   27.4800   26.6100   33.3700 N   0  0  0  0  0  0  0  0  0  0  0  0
   23.1869   25.9807   36.0260 C   0  0  0  0  0  0  0  0  0  0  0  0
   22.7984   25.7254   34.8060 N   0  0  0  0  0  0  0  0  0  0  0  0
   21.5296   25.3308   34.2702 C   0  0  0  0  0  0  0  0  0  0  0  0
   20.3903   25.8996   34.6390 C   0  0  0  0  0  0  0  0  0  0  0  0
   18.9897   26.0269   34.1166 C   0  0  0  0  0  0  0  0  0  0  0  0
   18.5677   26.9069   35.1084 O   0  0  0  0  0  0  0  0  0  0  0  0
   19.8332   26.8178   35.6827 C   0  0  1  0  0  0  0  0  0  0  0  0
   19.7440   26.1319   37.0446 C   0  0  0  0  0  0  0  0  0  0  0  0
   21.0823   25.8223   37.6267 C   0  0  0  0  0  0  0  0  0  0  0  0
   22.3509   25.7637   37.2295 C   0  0  0  0  0  0  0  0  0  0  0  0
   22.7191   25.3927   38.5888 C   0  0  0  0  0  0  0  0  0  0  0  0
   23.9972   25.0963   39.2932 C   0  0  0  0  0  0  0  0  0  0  0  0
   21.4791   25.4441   38.9451 N   0  0  0  0  0  0  0  0  0  0  0  0
  1  2  1  0
  2  3  2  0
  2  4  1  0
  4  5  2  0
  5  6  1  0
  6  7  2  0
  7  8  1  0
  8  9  2  0
  9 10  1  0
 10 11  2  0
 11 12  1  0
 12 13  2  0
 13 14  1  0
  1 15  1  0
 15 16  2  0
 16 17  1  0
 17 18  2  0
 18 19  1  0
 19 20  1  0
 20 21  1  0
 21 22  1  1
 22 23  1  0
 23 24  2  0
 24 25  1  0
 25 26  1  0
 25 27  2  0
 13  4  1  0
 24 15  1  0
 12  7  1  0
 21 18  1  0
 27 23  1  0
M  END
>  <AAScore>  (1) 
155.52225390757738

>  <RootName>  (1) 
./4ZLY/04_DeltaGEst/trajectory_01/rank_00/lead_0307

$$$$
