confid_5
     RDKit          3D

 27 30  0  0  0  0  0  0  0  0999 V2000
   25.3300   26.2600   34.7600 N   0  0  0  0  0  0  0  0  0  0  0  0
   26.1200   25.9200   33.6900 C   0  0  0  0  0  0  0  0  0  0  0  0
   25.6300   25.1100   32.9400 O   0  0  0  0  0  0  0  0  0  0  0  0
   27.5200   26.3800   33.4600 C   0  0  0  0  0  0  0  0  0  0  0  0
   28.1600   26.6300   34.6100 N   0  0  0  0  0  0  0  0  0  0  0  0
   29.4800   26.8500   34.5700 N   0  0  0  0  0  0  0  0  0  0  0  0
   30.1900   26.7800   33.4400 C   0  0  0  0  0  0  0  0  0  0  0  0
   31.5600   27.0500   33.5000 C   0  0  0  0  0  0  0  0  0  0  0  0
   32.2700   27.2400   32.3100 C   0  0  0  0  0  0  0  0  0  0  0  0
   31.6100   27.2500   31.0800 C   0  0  0  0  0  0  0  0  0  0  0  0
   30.2700   26.8700   31.0600 C   0  0  0  0  0  0  0  0  0  0  0  0
   29.5100   26.6900   32.2300 C   0  0  0  0  0  0  0  0  0  0  0  0
   28.1400   26.4100   32.2000 C   0  0  0  0  0  0  0  0  0  0  0  0
   27.4300   26.1300   31.0500 N   0  0  0  0  0  0  0  0  0  0  0  0
   23.9143   26.0061   34.8539 C   0  0  0  0  0  0  0  0  0  0  0  0
   23.1371   25.6793   33.8030 N   0  0  0  0  0  0  0  0  0  0  0  0
   21.8910   25.6050   34.3178 C   0  0  0  0  0  0  0  0  0  0  0  0
   20.6996   25.3156   33.4458 C   0  0  0  0  0  0  0  0  0  0  0  0
   19.6757   24.5787   34.2178 N   0  0  0  0  0  0  0  0  0  0  0  0
   19.3130   23.3107   33.5654 C   0  0  0  0  0  0  0  0  0  0  0  0
   18.4612   25.3788   34.4869 C   0  0  0  0  0  0  0  0  0  0  0  0
   18.7482   26.7329   35.1034 C   0  0  0  0  0  0  0  0  0  0  0  0
   19.6873   26.9790   36.0335 C   0  0  0  0  0  0  0  0  0  0  0  0
   20.6751   25.9598   36.5300 C   0  0  0  0  0  0  0  0  0  0  0  0
   21.8506   25.9038   35.6455 N   0  0  0  0  0  0  0  0  0  0  0  0
   23.1369   26.1381   35.9904 C   0  0  0  0  0  0  0  0  0  0  0  0
   23.6094   26.5088   37.3677 C   0  0  0  0  0  0  0  0  0  0  0  0
  1  2  1  0
  2  3  2  0
  2  4  1  0
  4  5  2  0
  5  6  1  0
  6  7  2  0
  7  8  1  0
  8  9  2  0
  9 10  1  0
 10 11  2  0
 11 12  1  0
 12 13  2  0
 13 14  1  0
  1 15  1  0
 15 16  1  0
 16 17  2  0
 17 18  1  0
 18 19  1  0
 19 20  1  0
 19 21  1  0
 21 22  1  0
 22 23  2  0
 23 24  1  0
 24 25  1  0
 25 26  1  0
 26 27  1  0
 13  4  1  0
 26 15  2  0
 12  7  1  0
 25 17  1  0
M  END
>  <AAScore>  (1) 
4280.752615684804

>  <RootName>  (1) 
./4ZLY/04_DeltaGEst/trajectory_03/rank_00/lead_0195

$$$$
