confid_3
     RDKit          3D

 27 31  0  0  0  0  0  0  0  0999 V2000
   24.4800   26.1000   36.1300 N   0  0  0  0  0  0  0  0  0  0  0  0
   25.2500   26.2500   34.9900 C   0  0  0  0  0  0  0  0  0  0  0  0
   24.7400   25.7600   33.9900 O   0  0  0  0  0  0  0  0  0  0  0  0
   26.5900   26.8900   34.9600 C   0  0  0  0  0  0  0  0  0  0  0  0
   27.0600   27.2400   36.1600 N   0  0  0  0  0  0  0  0  0  0  0  0
   28.3000   27.7100   36.2400 N   0  0  0  0  0  0  0  0  0  0  0  0
   29.0500   27.9600   35.1500 C   0  0  0  0  0  0  0  0  0  0  0  0
   30.3400   28.4900   35.2600 C   0  0  0  0  0  0  0  0  0  0  0  0
   31.1100   28.8200   34.1400 C   0  0  0  0  0  0  0  0  0  0  0  0
   30.5200   28.6700   32.8800 C   0  0  0  0  0  0  0  0  0  0  0  0
   29.2900   28.0200   32.7700 C   0  0  0  0  0  0  0  0  0  0  0  0
   28.5200   27.7100   33.8900 C   0  0  0  0  0  0  0  0  0  0  0  0
   27.2700   27.0800   33.7600 C   0  0  0  0  0  0  0  0  0  0  0  0
   26.7500   26.8800   32.4900 N   0  0  0  0  0  0  0  0  0  0  0  0
   23.0480   25.9906   36.1255 C   0  0  0  0  0  0  0  0  0  0  0  0
   22.3819   25.1500   36.9491 N   0  0  0  0  0  0  0  0  0  0  0  0
   21.0786   25.3877   36.6838 C   0  0  0  0  0  0  0  0  0  0  0  0
   20.9876   26.3660   35.7189 C   0  0  0  0  0  0  0  0  0  0  0  0
   19.7534   27.0551   35.2187 C   0  0  0  0  0  0  0  0  0  0  0  0
   20.0473   27.8831   34.0228 N   0  0  0  0  0  0  0  0  0  0  0  0
   21.2618   28.7124   34.2231 C   0  0  0  0  0  0  0  0  0  0  0  0
   22.5235   27.8558   34.4621 C   0  0  0  0  0  0  0  0  0  0  0  0
   22.2217   26.7638   35.3869 N   0  0  0  0  0  0  0  0  0  0  0  0
   20.1171   27.0794   32.7825 C   0  0  0  0  0  0  0  0  0  0  0  0
   18.7006   26.8062   32.2546 C   0  0  0  0  0  0  0  0  0  0  0  0
   18.1000   27.9147   31.4034 C   0  0  0  0  0  0  0  0  0  0  0  0
   18.5899   26.6318   30.7470 C   0  0  0  0  0  0  0  0  0  0  0  0
  1  2  1  0
  2  3  2  0
  2  4  1  0
  4  5  2  0
  5  6  1  0
  6  7  2  0
  7  8  1  0
  8  9  2  0
  9 10  1  0
 10 11  2  0
 11 12  1  0
 12 13  2  0
 13 14  1  0
  1 15  1  0
 15 16  2  0
 16 17  1  0
 17 18  2  0
 18 19  1  0
 19 20  1  0
 20 21  1  0
 21 22  1  0
 22 23  1  0
 20 24  1  0
 24 25  1  0
 25 26  1  0
 26 27  1  0
 13  4  1  0
 23 15  1  0
 27 25  1  0
 12  7  1  0
 23 18  1  0
M  END
>  <AAScore>  (1) 
864.6815645268072

>  <RootName>  (1) 
./4ZLY/04_DeltaGEst/trajectory_00/rank_01/lead_0358

$$$$
