confid_11
     RDKit          3D

 30 33  0  0  0  0  0  0  0  0999 V2000
   24.2000   26.2400   35.6900 N   0  0  0  0  0  0  0  0  0  0  0  0
   24.8500   26.2800   34.4800 C   0  0  0  0  0  0  0  0  0  0  0  0
   24.3100   25.7400   33.5400 O   0  0  0  0  0  0  0  0  0  0  0  0
   26.1800   26.9700   34.4700 C   0  0  0  0  0  0  0  0  0  0  0  0
   26.6500   27.6000   35.5500 N   0  0  0  0  0  0  0  0  0  0  0  0
   27.7900   28.2700   35.6200 N   0  0  0  0  0  0  0  0  0  0  0  0
   28.5400   28.3000   34.5100 C   0  0  0  0  0  0  0  0  0  0  0  0
   29.7700   28.9400   34.5600 C   0  0  0  0  0  0  0  0  0  0  0  0
   30.7000   28.8900   33.5000 C   0  0  0  0  0  0  0  0  0  0  0  0
   30.3700   28.1400   32.3700 C   0  0  0  0  0  0  0  0  0  0  0  0
   29.1200   27.5200   32.2800 C   0  0  0  0  0  0  0  0  0  0  0  0
   28.2100   27.6100   33.3300 C   0  0  0  0  0  0  0  0  0  0  0  0
   26.9700   26.9700   33.3100 C   0  0  0  0  0  0  0  0  0  0  0  0
   26.5300   26.2400   32.2200 N   0  0  0  0  0  0  0  0  0  0  0  0
   23.1946   25.2630   36.0265 C   0  0  0  0  0  0  0  0  0  0  0  0
   22.9933   24.1368   35.3078 N   0  0  0  0  0  0  0  0  0  0  0  0
   22.0356   23.4776   35.9835 C   0  0  0  0  0  0  0  0  0  0  0  0
   21.6831   24.1980   37.1042 C   0  0  0  0  0  0  0  0  0  0  0  0
   20.6065   23.7844   38.0685 C   0  0  0  0  0  0  0  0  0  0  0  0
   21.0561   23.9354   39.4562 N   0  0  0  0  0  0  0  0  0  0  0  0
   21.2891   25.2531   39.9884 C   0  0  0  0  0  0  0  0  0  0  0  0
   21.5613   25.4082   41.2101 O   0  0  0  0  0  0  0  0  0  0  0  0
   21.2668   26.4525   39.0888 C   0  0  0  0  0  0  0  0  0  0  0  0
   22.4559   26.4266   38.1264 C   0  0  0  0  0  0  0  0  0  0  0  0
   22.4024   25.3471   37.1238 N   0  0  0  0  0  0  0  0  0  0  0  0
   21.2249   22.7447   40.3023 C   0  0  0  0  0  0  0  0  0  0  0  0
   19.9321   22.4121   41.0493 C   0  0  0  0  0  0  0  0  0  0  0  0
   18.9106   22.1691   40.1489 F   0  0  0  0  0  0  0  0  0  0  0  0
   19.5696   23.4602   41.8752 F   0  0  0  0  0  0  0  0  0  0  0  0
   20.1266   21.2814   41.8211 F   0  0  0  0  0  0  0  0  0  0  0  0
  1  2  1  0
  2  3  2  0
  2  4  1  0
  4  5  2  0
  5  6  1  0
  6  7  2  0
  7  8  1  0
  8  9  2  0
  9 10  1  0
 10 11  2  0
 11 12  1  0
 12 13  2  0
 13 14  1  0
  1 15  1  0
 15 16  2  0
 16 17  1  0
 17 18  2  0
 18 19  1  0
 19 20  1  0
 20 21  1  0
 21 22  2  0
 21 23  1  0
 23 24  1  0
 24 25  1  0
 20 26  1  0
 26 27  1  0
 27 28  1  0
 27 29  1  0
 27 30  1  0
 13  4  1  0
 25 15  1  0
 12  7  1  0
 25 18  1  0
M  END
>  <AAScore>  (1) 
675.9877273867268

>  <RootName>  (1) 
./4ZLY/04_DeltaGEst/trajectory_04/rank_00/lead_0028

$$$$
