confid_11
     RDKit          3D

 29 32  0  0  0  0  0  0  0  0999 V2000
   24.6900   26.1200   35.5300 N   0  0  0  0  0  0  0  0  0  0  0  0
   25.6600   25.6700   34.6600 C   0  0  0  0  0  0  0  0  0  0  0  0
   25.2400   25.0100   33.7200 O   0  0  0  0  0  0  0  0  0  0  0  0
   27.0300   26.2200   34.8800 C   0  0  0  0  0  0  0  0  0  0  0  0
   27.3500   26.7300   36.0700 N   0  0  0  0  0  0  0  0  0  0  0  0
   28.5700   27.1800   36.3300 N   0  0  0  0  0  0  0  0  0  0  0  0
   29.5300   27.1100   35.3900 C   0  0  0  0  0  0  0  0  0  0  0  0
   30.8300   27.5700   35.6500 C   0  0  0  0  0  0  0  0  0  0  0  0
   31.8500   27.5400   34.6900 C   0  0  0  0  0  0  0  0  0  0  0  0
   31.5100   27.1200   33.4000 C   0  0  0  0  0  0  0  0  0  0  0  0
   30.2200   26.6300   33.1100 C   0  0  0  0  0  0  0  0  0  0  0  0
   29.2400   26.6600   34.1000 C   0  0  0  0  0  0  0  0  0  0  0  0
   27.9300   26.2600   33.8100 C   0  0  0  0  0  0  0  0  0  0  0  0
   27.5200   25.7100   32.6100 N   0  0  0  0  0  0  0  0  0  0  0  0
   31.1436   28.0568   36.9607 N   0  0  0  0  0  0  0  0  0  0  0  0
   30.8201   29.4412   37.3193 C   0  0  0  0  0  0  0  0  0  0  0  0
   30.6971   29.5842   38.8386 C   0  0  0  0  0  0  0  0  0  0  0  0
   30.0771   28.3613   39.3798 N   0  0  0  0  0  0  0  0  0  0  0  0
   29.6135   28.5696   40.7648 C   0  0  0  0  0  0  0  0  0  0  0  0
   28.6848   27.4591   41.1773 C   0  0  0  0  0  0  0  0  0  0  0  0
   28.9740   26.4564   42.0877 C   0  0  0  0  0  0  0  0  0  0  0  0
   30.4578   26.2546   43.0067 Cl  0  0  0  0  0  0  0  0  0  0  0  0
   27.8562   25.6455   42.1457 C   0  0  0  0  0  0  0  0  0  0  0  0
   27.6507   24.4714   43.0465 C   0  0  0  0  0  0  0  0  0  0  0  0
   26.9244   26.1835   41.2786 C   0  0  0  0  0  0  0  0  0  0  0  0
   27.4423   27.2727   40.6760 N   0  0  0  0  0  0  0  0  0  0  0  0
   26.7414   28.1304   39.7236 C   0  0  0  0  0  0  0  0  0  0  0  0
   31.0113   27.2120   39.2868 C   0  0  0  0  0  0  0  0  0  0  0  0
   31.7710   27.1691   37.9427 C   0  0  0  0  0  0  0  0  0  0  0  0
  1  2  1  0
  2  3  2  0
  2  4  1  0
  4  5  2  0
  5  6  1  0
  6  7  2  0
  7  8  1  0
  8  9  2  0
  9 10  1  0
 10 11  2  0
 11 12  1  0
 12 13  2  0
 13 14  1  0
  8 15  1  0
 15 16  1  0
 16 17  1  0
 17 18  1  0
 18 19  1  0
 19 20  1  0
 20 21  2  0
 21 22  1  0
 21 23  1  0
 23 24  1  0
 23 25  2  0
 25 26  1  0
 26 27  1  0
 18 28  1  0
 28 29  1  0
 13  4  1  0
 29 15  1  0
 12  7  1  0
 26 20  1  0
M  END
>  <AAScore>  (1) 
39.21410215919058

>  <RootName>  (1) 
./4ZLY/04_DeltaGEst/trajectory_02/rank_01/lead_0057

$$$$
