confid_9
     RDKit          3D

 28 31  0  0  0  0  0  0  0  0999 V2000
   24.2000   26.2400   35.6900 N   0  0  0  0  0  0  0  0  0  0  0  0
   24.8500   26.2800   34.4800 C   0  0  0  0  0  0  0  0  0  0  0  0
   24.3100   25.7400   33.5400 O   0  0  0  0  0  0  0  0  0  0  0  0
   26.1800   26.9700   34.4700 C   0  0  0  0  0  0  0  0  0  0  0  0
   26.6500   27.6000   35.5500 N   0  0  0  0  0  0  0  0  0  0  0  0
   27.7900   28.2700   35.6200 N   0  0  0  0  0  0  0  0  0  0  0  0
   28.5400   28.3000   34.5100 C   0  0  0  0  0  0  0  0  0  0  0  0
   29.7700   28.9400   34.5600 C   0  0  0  0  0  0  0  0  0  0  0  0
   30.7000   28.8900   33.5000 C   0  0  0  0  0  0  0  0  0  0  0  0
   30.3700   28.1400   32.3700 C   0  0  0  0  0  0  0  0  0  0  0  0
   29.1200   27.5200   32.2800 C   0  0  0  0  0  0  0  0  0  0  0  0
   28.2100   27.6100   33.3300 C   0  0  0  0  0  0  0  0  0  0  0  0
   26.9700   26.9700   33.3100 C   0  0  0  0  0  0  0  0  0  0  0  0
   26.5300   26.2400   32.2200 N   0  0  0  0  0  0  0  0  0  0  0  0
   22.7755   26.0294   35.8567 C   0  0  0  0  0  0  0  0  0  0  0  0
   21.9820   25.8608   34.7598 N   0  0  0  0  0  0  0  0  0  0  0  0
   20.6417   25.6900   34.8473 C   0  0  0  0  0  0  0  0  0  0  0  0
   20.0082   25.7234   36.0959 C   0  0  0  0  0  0  0  0  0  0  0  0
   18.5197   25.5895   36.2064 C   0  0  0  0  0  0  0  0  0  0  0  0
   18.0421   26.4883   37.2684 N   0  0  0  0  0  0  0  0  0  0  0  0
   16.5649   26.5655   37.2713 C   0  0  0  0  0  0  0  0  0  0  0  0
   16.0985   27.6896   36.3422 C   0  0  0  0  0  0  0  0  0  0  0  0
   18.5469   26.0150   38.5764 C   0  0  0  0  0  0  0  0  0  0  0  0
   20.0947   25.9448   38.6199 C   0  0  0  0  0  0  0  0  0  0  0  0
   20.7750   25.8927   37.2568 C   0  0  0  0  0  0  0  0  0  0  0  0
   22.1803   26.0244   37.1432 C   0  0  0  0  0  0  0  0  0  0  0  0
   22.9923   26.1433   38.3360 C   0  0  0  0  0  0  0  0  0  0  0  0
   23.6413   26.2278   39.2910 N   0  0  0  0  0  0  0  0  0  0  0  0
  1  2  1  0
  2  3  2  0
  2  4  1  0
  4  5  2  0
  5  6  1  0
  6  7  2  0
  7  8  1  0
  8  9  2  0
  9 10  1  0
 10 11  2  0
 11 12  1  0
 12 13  2  0
 13 14  1  0
  1 15  1  0
 15 16  2  0
 16 17  1  0
 17 18  2  0
 18 19  1  0
 19 20  1  0
 20 21  1  0
 21 22  1  0
 20 23  1  0
 23 24  1  0
 24 25  1  0
 25 26  2  0
 26 27  1  0
 27 28  3  0
 13  4  1  0
 26 15  1  0
 12  7  1  0
 25 18  1  0
M  END
>  <AAScore>  (1) 
235.06713259670883

>  <RootName>  (1) 
./4ZLY/04_DeltaGEst/trajectory_04/rank_00/lead_0477

$$$$
