confid_11
     RDKit          3D

 27 30  0  0  0  0  0  0  0  0999 V2000
   24.6900   26.1200   35.5300 N   0  0  0  0  0  0  0  0  0  0  0  0
   25.6600   25.6700   34.6600 C   0  0  0  0  0  0  0  0  0  0  0  0
   25.2400   25.0100   33.7200 O   0  0  0  0  0  0  0  0  0  0  0  0
   27.0300   26.2200   34.8800 C   0  0  0  0  0  0  0  0  0  0  0  0
   27.3500   26.7300   36.0700 N   0  0  0  0  0  0  0  0  0  0  0  0
   28.5700   27.1800   36.3300 N   0  0  0  0  0  0  0  0  0  0  0  0
   29.5300   27.1100   35.3900 C   0  0  0  0  0  0  0  0  0  0  0  0
   30.8300   27.5700   35.6500 C   0  0  0  0  0  0  0  0  0  0  0  0
   31.8500   27.5400   34.6900 C   0  0  0  0  0  0  0  0  0  0  0  0
   31.5100   27.1200   33.4000 C   0  0  0  0  0  0  0  0  0  0  0  0
   30.2200   26.6300   33.1100 C   0  0  0  0  0  0  0  0  0  0  0  0
   29.2400   26.6600   34.1000 C   0  0  0  0  0  0  0  0  0  0  0  0
   27.9300   26.2600   33.8100 C   0  0  0  0  0  0  0  0  0  0  0  0
   27.5200   25.7100   32.6100 N   0  0  0  0  0  0  0  0  0  0  0  0
   31.1840   28.0738   37.0009 C   0  0  0  0  0  0  0  0  0  0  0  0
   31.7669   29.3401   37.1585 C   0  0  0  0  0  0  0  0  0  0  0  0
   32.1059   29.8090   38.4343 C   0  0  0  0  0  0  0  0  0  0  0  0
   32.7716   31.1532   38.5921 C   0  0  0  0  0  0  0  0  0  0  0  0
   32.8584   31.6011   39.9969 N   0  0  0  0  0  0  0  0  0  0  0  0
   33.2434   32.9629   40.2938 C   0  0  0  0  0  0  0  0  0  0  0  0
   33.2095   33.3843   41.4824 O   0  0  0  0  0  0  0  0  0  0  0  0
   33.6628   33.9154   39.2131 C   0  0  0  0  0  0  0  0  0  0  0  0
   32.6788   30.6746   41.0898 C   0  0  0  0  0  0  0  0  0  0  0  0
   32.2189   29.4414   40.8884 C   0  0  0  0  0  0  0  0  0  0  0  0
   31.8733   28.9826   39.5420 C   0  0  0  0  0  0  0  0  0  0  0  0
   31.3196   27.7526   39.3707 N   0  0  0  0  0  0  0  0  0  0  0  0
   30.9741   27.2850   38.1425 C   0  0  0  0  0  0  0  0  0  0  0  0
  1  2  1  0
  2  3  2  0
  2  4  1  0
  4  5  2  0
  5  6  1  0
  6  7  2  0
  7  8  1  0
  8  9  2  0
  9 10  1  0
 10 11  2  0
 11 12  1  0
 12 13  2  0
 13 14  1  0
  8 15  1  0
 15 16  2  0
 16 17  1  0
 17 18  1  0
 18 19  1  0
 19 20  1  0
 20 21  2  0
 20 22  1  0
 19 23  1  0
 23 24  2  0
 24 25  1  0
 25 26  1  0
 26 27  2  0
 13  4  1  0
 27 15  1  0
 12  7  1  0
 25 17  2  0
M  END
>  <AAScore>  (1) 
11.149626579043522

>  <RootName>  (1) 
./4ZLY/04_DeltaGEst/trajectory_02/rank_01/lead_0216

$$$$
