confid_15
     RDKit          3D

 30 34  0  0  0  0  0  0  0  0999 V2000
   24.6900   26.1200   35.5300 N   0  0  0  0  0  0  0  0  0  0  0  0
   25.6600   25.6700   34.6600 C   0  0  0  0  0  0  0  0  0  0  0  0
   25.2400   25.0100   33.7200 O   0  0  0  0  0  0  0  0  0  0  0  0
   27.0300   26.2200   34.8800 C   0  0  0  0  0  0  0  0  0  0  0  0
   27.3500   26.7300   36.0700 N   0  0  0  0  0  0  0  0  0  0  0  0
   28.5700   27.1800   36.3300 N   0  0  0  0  0  0  0  0  0  0  0  0
   29.5300   27.1100   35.3900 C   0  0  0  0  0  0  0  0  0  0  0  0
   30.8300   27.5700   35.6500 C   0  0  0  0  0  0  0  0  0  0  0  0
   31.8500   27.5400   34.6900 C   0  0  0  0  0  0  0  0  0  0  0  0
   31.5100   27.1200   33.4000 C   0  0  0  0  0  0  0  0  0  0  0  0
   30.2200   26.6300   33.1100 C   0  0  0  0  0  0  0  0  0  0  0  0
   29.2400   26.6600   34.1000 C   0  0  0  0  0  0  0  0  0  0  0  0
   27.9300   26.2600   33.8100 C   0  0  0  0  0  0  0  0  0  0  0  0
   27.5200   25.7100   32.6100 N   0  0  0  0  0  0  0  0  0  0  0  0
   31.1409   28.0845   36.9629 N   0  0  0  0  0  0  0  0  0  0  0  0
   32.3682   27.6443   37.6451 C   0  0  0  0  0  0  0  0  0  0  0  0
   32.2442   27.7420   39.1669 C   0  0  0  0  0  0  0  0  0  0  0  0
   30.9677   27.1574   39.6052 N   0  0  0  0  0  0  0  0  0  0  0  0
   30.8854   25.7725   40.0185 C   0  0  0  0  0  0  0  0  0  0  0  0
   29.7701   25.2845   40.3515 O   0  0  0  0  0  0  0  0  0  0  0  0
   32.0938   24.8724   40.0113 C   0  0  0  0  0  0  0  0  0  0  0  0
   32.1259   23.7936   41.0876 C   0  0  0  0  0  0  0  0  0  0  0  0
   32.9966   25.0283   41.2267 C   0  0  0  0  0  0  0  0  0  0  0  0
   29.7219   27.9491   39.5563 C   0  0  0  0  0  0  0  0  0  0  0  0
   29.8124   29.2194   38.7286 C   0  0  0  0  0  0  0  0  0  0  0  0
   29.1469   30.3727   39.1805 C   0  0  0  0  0  0  0  0  0  0  0  0
   29.1117   31.5275   38.3959 C   0  0  0  0  0  0  0  0  0  0  0  0
   29.7239   31.5416   37.1429 C   0  0  0  0  0  0  0  0  0  0  0  0
   30.3776   30.4023   36.6719 C   0  0  0  0  0  0  0  0  0  0  0  0
   30.4296   29.2369   37.4539 C   0  0  0  0  0  0  0  0  0  0  0  0
  1  2  1  0
  2  3  2  0
  2  4  1  0
  4  5  2  0
  5  6  1  0
  6  7  2  0
  7  8  1  0
  8  9  2  0
  9 10  1  0
 10 11  2  0
 11 12  1  0
 12 13  2  0
 13 14  1  0
  8 15  1  0
 15 16  1  0
 16 17  1  0
 17 18  1  0
 18 19  1  0
 19 20  2  0
 19 21  1  0
 21 22  1  0
 22 23  1  0
 18 24  1  0
 24 25  1  0
 25 26  2  0
 26 27  1  0
 27 28  2  0
 28 29  1  0
 29 30  2  0
 13  4  1  0
 30 15  1  0
 12  7  1  0
 23 21  1  0
 30 25  1  0
M  END
>  <AAScore>  (1) 
39.07673171422525

>  <RootName>  (1) 
./4ZLY/04_DeltaGEst/trajectory_02/rank_01/lead_0129

$$$$
