confid_13
     RDKit          3D

 27 30  0  0  0  0  0  0  0  0999 V2000
   24.4800   26.1000   36.1300 N   0  0  0  0  0  0  0  0  0  0  0  0
   25.2500   26.2500   34.9900 C   0  0  0  0  0  0  0  0  0  0  0  0
   24.7400   25.7600   33.9900 O   0  0  0  0  0  0  0  0  0  0  0  0
   26.5900   26.8900   34.9600 C   0  0  0  0  0  0  0  0  0  0  0  0
   27.0600   27.2400   36.1600 N   0  0  0  0  0  0  0  0  0  0  0  0
   28.3000   27.7100   36.2400 N   0  0  0  0  0  0  0  0  0  0  0  0
   29.0500   27.9600   35.1500 C   0  0  0  0  0  0  0  0  0  0  0  0
   30.3400   28.4900   35.2600 C   0  0  0  0  0  0  0  0  0  0  0  0
   31.1100   28.8200   34.1400 C   0  0  0  0  0  0  0  0  0  0  0  0
   30.5200   28.6700   32.8800 C   0  0  0  0  0  0  0  0  0  0  0  0
   29.2900   28.0200   32.7700 C   0  0  0  0  0  0  0  0  0  0  0  0
   28.5200   27.7100   33.8900 C   0  0  0  0  0  0  0  0  0  0  0  0
   27.2700   27.0800   33.7600 C   0  0  0  0  0  0  0  0  0  0  0  0
   26.7500   26.8800   32.4900 N   0  0  0  0  0  0  0  0  0  0  0  0
   23.5886   24.9992   36.3897 C   0  0  0  0  0  0  0  0  0  0  0  0
   22.7388   25.0308   37.3654 N   0  0  0  0  0  0  0  0  0  0  0  0
   22.0693   23.7785   37.3784 C   0  0  0  0  0  0  0  0  0  0  0  0
   22.5093   23.0000   36.4047 C   0  0  0  0  0  0  0  0  0  0  0  0
   22.3673   21.5187   36.3323 C   0  0  0  0  0  0  0  0  0  0  0  0
   23.1648   21.0096   35.1964 N   0  0  0  0  0  0  0  0  0  0  0  0
   22.8803   19.5779   34.9762 C   0  0  0  0  0  0  0  0  0  0  0  0
   24.6262   21.4005   35.1948 C   0  0  2  0  0  0  0  0  0  0  0  0
   25.1033   21.4134   33.7186 C   0  0  0  0  0  0  0  0  0  0  0  0
   25.4885   20.3871   36.0268 C   0  0  0  0  0  0  0  0  0  0  0  0
   26.9796   20.7378   36.1403 C   0  0  0  0  0  0  0  0  0  0  0  0
   24.8284   22.8573   35.7698 C   0  0  0  0  0  0  0  0  0  0  0  0
   23.5570   23.6999   35.6339 C   0  0  2  0  0  0  0  0  0  0  0  0
  1  2  1  0
  2  3  2  0
  2  4  1  0
  4  5  2  0
  5  6  1  0
  6  7  2  0
  7  8  1  0
  8  9  2  0
  9 10  1  0
 10 11  2  0
 11 12  1  0
 12 13  2  0
 13 14  1  0
  1 15  1  0
 15 16  2  0
 16 17  1  0
 17 18  2  0
 18 19  1  0
 19 20  1  0
 20 21  1  0
 20 22  1  0
 22 23  1  6
 22 24  1  0
 24 25  1  0
 22 26  1  0
 27 26  1  1
 13  4  1  0
 27 15  1  0
 12  7  1  0
 27 18  1  0
M  END
>  <AAScore>  (1) 
2088.67707019984

>  <RootName>  (1) 
./4ZLY/04_DeltaGEst/trajectory_00/rank_00/lead_0177

$$$$
