confid_17
     RDKit          3D

 30 34  0  0  0  0  0  0  0  0999 V2000
   25.3300   26.2600   34.7600 N   0  0  0  0  0  0  0  0  0  0  0  0
   26.1200   25.9200   33.6900 C   0  0  0  0  0  0  0  0  0  0  0  0
   25.6300   25.1100   32.9400 O   0  0  0  0  0  0  0  0  0  0  0  0
   27.5200   26.3800   33.4600 C   0  0  0  0  0  0  0  0  0  0  0  0
   28.1600   26.6300   34.6100 N   0  0  0  0  0  0  0  0  0  0  0  0
   29.4800   26.8500   34.5700 N   0  0  0  0  0  0  0  0  0  0  0  0
   30.1900   26.7800   33.4400 C   0  0  0  0  0  0  0  0  0  0  0  0
   31.5600   27.0500   33.5000 C   0  0  0  0  0  0  0  0  0  0  0  0
   32.2700   27.2400   32.3100 C   0  0  0  0  0  0  0  0  0  0  0  0
   31.6100   27.2500   31.0800 C   0  0  0  0  0  0  0  0  0  0  0  0
   30.2700   26.8700   31.0600 C   0  0  0  0  0  0  0  0  0  0  0  0
   29.5100   26.6900   32.2300 C   0  0  0  0  0  0  0  0  0  0  0  0
   28.1400   26.4100   32.2000 C   0  0  0  0  0  0  0  0  0  0  0  0
   27.4300   26.1300   31.0500 N   0  0  0  0  0  0  0  0  0  0  0  0
   26.3273   26.7374   30.2796 C   0  0  0  0  0  0  0  0  0  0  0  0
   26.3130   25.7103   29.1848 C   0  0  0  0  0  0  0  0  0  0  0  0
   25.1100   24.9562   29.1838 O   0  0  0  0  0  0  0  0  0  0  0  0
   25.2077   23.8658   28.2823 C   0  0  0  0  0  0  0  0  0  0  0  0
   25.4409   24.3407   26.8447 C   0  0  0  0  0  0  0  0  0  0  0  0
   26.6252   25.2016   26.8105 N   0  0  0  0  0  0  0  0  0  0  0  0
   27.6854   24.9965   25.8572 C   0  0  0  0  0  0  0  0  0  0  0  0
   28.8827   25.1472   26.2243 O   0  0  0  0  0  0  0  0  0  0  0  0
   27.4048   24.6095   24.4551 C   0  0  0  0  0  0  0  0  0  0  0  0
   28.3377   23.8432   23.7335 C   0  0  0  0  0  0  0  0  0  0  0  0
   28.0826   23.4847   22.4062 C   0  0  0  0  0  0  0  0  0  0  0  0
   26.9010   23.8949   21.7843 C   0  0  0  0  0  0  0  0  0  0  0  0
   25.9750   24.6697   22.4868 C   0  0  0  0  0  0  0  0  0  0  0  0
   26.2255   25.0305   23.8143 C   0  0  0  0  0  0  0  0  0  0  0  0
   26.7039   26.2727   27.8032 C   0  0  0  0  0  0  0  0  0  0  0  0
   27.4253   25.0994   29.9942 C   0  0  0  0  0  0  0  0  0  0  0  0
  1  2  1  0
  2  3  2  0
  2  4  1  0
  4  5  2  0
  5  6  1  0
  6  7  2  0
  7  8  1  0
  8  9  2  0
  9 10  1  0
 10 11  2  0
 11 12  1  0
 12 13  2  0
 13 14  1  0
 14 15  1  0
 15 16  1  0
 16 17  1  0
 17 18  1  0
 18 19  1  0
 19 20  1  0
 20 21  1  0
 21 22  2  0
 21 23  1  0
 23 24  2  0
 24 25  1  0
 25 26  2  0
 26 27  1  0
 27 28  2  0
 20 29  1  0
 16 30  1  0
 13  4  1  0
 30 14  1  0
 12  7  1  0
 29 16  1  0
 28 23  1  0
M  END
>  <AAScore>  (1) 
37.08103254377176

>  <RootName>  (1) 
./4ZLY/04_DeltaGEst/trajectory_03/rank_01/lead_0239

$$$$
