confid_18
     RDKit          3D

 28 32  0  0  0  0  0  0  0  0999 V2000
   24.4800   26.1000   36.1300 N   0  0  0  0  0  0  0  0  0  0  0  0
   25.2500   26.2500   34.9900 C   0  0  0  0  0  0  0  0  0  0  0  0
   24.7400   25.7600   33.9900 O   0  0  0  0  0  0  0  0  0  0  0  0
   26.5900   26.8900   34.9600 C   0  0  0  0  0  0  0  0  0  0  0  0
   27.0600   27.2400   36.1600 N   0  0  0  0  0  0  0  0  0  0  0  0
   28.3000   27.7100   36.2400 N   0  0  0  0  0  0  0  0  0  0  0  0
   29.0500   27.9600   35.1500 C   0  0  0  0  0  0  0  0  0  0  0  0
   30.3400   28.4900   35.2600 C   0  0  0  0  0  0  0  0  0  0  0  0
   31.1100   28.8200   34.1400 C   0  0  0  0  0  0  0  0  0  0  0  0
   30.5200   28.6700   32.8800 C   0  0  0  0  0  0  0  0  0  0  0  0
   29.2900   28.0200   32.7700 C   0  0  0  0  0  0  0  0  0  0  0  0
   28.5200   27.7100   33.8900 C   0  0  0  0  0  0  0  0  0  0  0  0
   27.2700   27.0800   33.7600 C   0  0  0  0  0  0  0  0  0  0  0  0
   26.7500   26.8800   32.4900 N   0  0  0  0  0  0  0  0  0  0  0  0
   23.4207   25.1431   36.3175 C   0  0  0  0  0  0  0  0  0  0  0  0
   22.6510   25.2091   37.4456 N   0  0  0  0  0  0  0  0  0  0  0  0
   21.6471   24.3163   37.6720 C   0  0  0  0  0  0  0  0  0  0  0  0
   21.4173   23.3163   36.7325 C   0  0  0  0  0  0  0  0  0  0  0  0
   20.3729   22.2712   36.7528 C   0  0  0  0  0  0  0  0  0  0  0  0
   20.6897   21.4128   35.5109 C   0  0  0  0  0  0  0  0  0  0  0  0
   21.7907   22.1606   34.6866 C   0  0  0  0  0  0  0  0  0  0  0  0
   22.9870   21.2406   34.3611 C   0  0  0  0  0  0  0  0  0  0  0  0
   22.6039   20.1749   33.3057 C   0  0  0  0  0  0  0  0  0  0  0  0
   21.3290   20.3984   32.7231 O   0  0  0  0  0  0  0  0  0  0  0  0
   21.2455   21.7204   32.2257 C   0  0  0  0  0  0  0  0  0  0  0  0
   21.2198   22.7518   33.3720 C   0  0  0  0  0  0  0  0  0  0  0  0
   22.1949   23.2562   35.6133 C   0  0  0  0  0  0  0  0  0  0  0  0
   23.1886   24.1577   35.4002 N   0  0  0  0  0  0  0  0  0  0  0  0
  1  2  1  0
  2  3  2  0
  2  4  1  0
  4  5  2  0
  5  6  1  0
  6  7  2  0
  7  8  1  0
  8  9  2  0
  9 10  1  0
 10 11  2  0
 11 12  1  0
 12 13  2  0
 13 14  1  0
  1 15  1  0
 15 16  2  0
 16 17  1  0
 17 18  2  0
 18 19  1  0
 19 20  1  0
 20 21  1  0
 21 22  1  0
 22 23  1  0
 23 24  1  0
 24 25  1  0
 25 26  1  0
 21 27  1  0
 27 28  2  0
 13  4  1  0
 28 15  1  0
 12  7  1  0
 27 18  1  0
 26 21  1  0
M  END
>  <AAScore>  (1) 
287.33957682392963

>  <RootName>  (1) 
./4ZLY/04_DeltaGEst/trajectory_00/rank_01/lead_0239

$$$$
