confid_17
     RDKit          3D

 28 31  0  0  0  0  0  0  0  0999 V2000
   24.4800   26.1000   36.1300 N   0  0  0  0  0  0  0  0  0  0  0  0
   25.2500   26.2500   34.9900 C   0  0  0  0  0  0  0  0  0  0  0  0
   24.7400   25.7600   33.9900 O   0  0  0  0  0  0  0  0  0  0  0  0
   26.5900   26.8900   34.9600 C   0  0  0  0  0  0  0  0  0  0  0  0
   27.0600   27.2400   36.1600 N   0  0  0  0  0  0  0  0  0  0  0  0
   28.3000   27.7100   36.2400 N   0  0  0  0  0  0  0  0  0  0  0  0
   29.0500   27.9600   35.1500 C   0  0  0  0  0  0  0  0  0  0  0  0
   30.3400   28.4900   35.2600 C   0  0  0  0  0  0  0  0  0  0  0  0
   31.1100   28.8200   34.1400 C   0  0  0  0  0  0  0  0  0  0  0  0
   30.5200   28.6700   32.8800 C   0  0  0  0  0  0  0  0  0  0  0  0
   29.2900   28.0200   32.7700 C   0  0  0  0  0  0  0  0  0  0  0  0
   28.5200   27.7100   33.8900 C   0  0  0  0  0  0  0  0  0  0  0  0
   27.2700   27.0800   33.7600 C   0  0  0  0  0  0  0  0  0  0  0  0
   26.7500   26.8800   32.4900 N   0  0  0  0  0  0  0  0  0  0  0  0
   23.4589   25.1036   36.3308 C   0  0  0  0  0  0  0  0  0  0  0  0
   22.4229   25.3834   37.1620 N   0  0  0  0  0  0  0  0  0  0  0  0
   21.4273   24.4925   37.4003 C   0  0  0  0  0  0  0  0  0  0  0  0
   21.4213   23.2373   36.7809 C   0  0  0  0  0  0  0  0  0  0  0  0
   20.2866   22.4347   37.0075 O   0  0  0  0  0  0  0  0  0  0  0  0
   19.6753   21.5156   36.0973 C   0  0  0  0  0  0  0  0  0  0  0  0
   19.5579   22.0958   34.6720 C   0  0  0  0  0  0  0  0  0  0  0  0
   19.7976   21.0797   33.6230 N   0  0  0  0  0  0  0  0  0  0  0  0
   21.1398   20.4371   33.6534 C   0  0  0  0  0  0  0  0  0  0  0  0
   22.3317   21.3945   33.9086 C   0  0  0  0  0  0  0  0  0  0  0  0
   22.7467   21.4929   35.3977 C   0  0  0  0  0  0  0  0  0  0  0  0
   22.5363   22.8745   35.9752 C   0  0  0  0  0  0  0  0  0  0  0  0
   23.5429   23.8299   35.7467 C   0  0  0  0  0  0  0  0  0  0  0  0
   19.5160   21.6474   32.2927 C   0  0  0  0  0  0  0  0  0  0  0  0
  1  2  1  0
  2  3  2  0
  2  4  1  0
  4  5  2  0
  5  6  1  0
  6  7  2  0
  7  8  1  0
  8  9  2  0
  9 10  1  0
 10 11  2  0
 11 12  1  0
 12 13  2  0
 13 14  1  0
  1 15  1  0
 15 16  2  0
 16 17  1  0
 17 18  2  0
 18 19  1  0
 19 20  1  0
 20 21  1  0
 21 22  1  0
 22 23  1  0
 23 24  1  0
 24 25  1  0
 25 26  1  0
 26 27  2  0
 22 28  1  0
 13  4  1  0
 27 15  1  0
 12  7  1  0
 26 18  1  0
M  END
>  <AAScore>  (1) 
257.68053726574936

>  <RootName>  (1) 
./4ZLY/04_DeltaGEst/trajectory_00/rank_00/lead_0063

$$$$
