confid_12
     RDKit          3D

 27 30  0  0  0  0  0  0  0  0999 V2000
   25.3300   26.2600   34.7600 N   0  0  0  0  0  0  0  0  0  0  0  0
   26.1200   25.9200   33.6900 C   0  0  0  0  0  0  0  0  0  0  0  0
   25.6300   25.1100   32.9400 O   0  0  0  0  0  0  0  0  0  0  0  0
   27.5200   26.3800   33.4600 C   0  0  0  0  0  0  0  0  0  0  0  0
   28.1600   26.6300   34.6100 N   0  0  0  0  0  0  0  0  0  0  0  0
   29.4800   26.8500   34.5700 N   0  0  0  0  0  0  0  0  0  0  0  0
   30.1900   26.7800   33.4400 C   0  0  0  0  0  0  0  0  0  0  0  0
   31.5600   27.0500   33.5000 C   0  0  0  0  0  0  0  0  0  0  0  0
   32.2700   27.2400   32.3100 C   0  0  0  0  0  0  0  0  0  0  0  0
   31.6100   27.2500   31.0800 C   0  0  0  0  0  0  0  0  0  0  0  0
   30.2700   26.8700   31.0600 C   0  0  0  0  0  0  0  0  0  0  0  0
   29.5100   26.6900   32.2300 C   0  0  0  0  0  0  0  0  0  0  0  0
   28.1400   26.4100   32.2000 C   0  0  0  0  0  0  0  0  0  0  0  0
   27.4300   26.1300   31.0500 N   0  0  0  0  0  0  0  0  0  0  0  0
   23.9104   26.0197   34.8377 C   0  0  0  0  0  0  0  0  0  0  0  0
   23.1362   25.8382   33.7443 N   0  0  0  0  0  0  0  0  0  0  0  0
   21.8900   25.7001   34.2355 C   0  0  0  0  0  0  0  0  0  0  0  0
   21.9242   25.7991   35.6088 C   0  0  0  0  0  0  0  0  0  0  0  0
   20.7162   25.6717   36.5088 C   0  0  0  0  0  0  0  0  0  0  0  0
   21.0631   25.4770   37.9343 N   0  0  0  0  0  0  0  0  0  0  0  0
   19.8370   25.2656   38.7199 C   0  0  0  0  0  0  0  0  0  0  0  0
   22.0126   24.3556   38.1215 C   0  0  0  0  0  0  0  0  0  0  0  0
   23.4613   24.8797   38.1913 C   0  0  0  0  0  0  0  0  0  0  0  0
   24.3208   23.8922   37.7395 F   0  0  0  0  0  0  0  0  0  0  0  0
   23.7760   25.1546   39.5118 F   0  0  0  0  0  0  0  0  0  0  0  0
   23.6900   26.1597   37.3688 C   0  0  0  0  0  0  0  0  0  0  0  0
   23.2018   26.0083   35.9934 N   0  0  0  0  0  0  0  0  0  0  0  0
  1  2  1  0
  2  3  2  0
  2  4  1  0
  4  5  2  0
  5  6  1  0
  6  7  2  0
  7  8  1  0
  8  9  2  0
  9 10  1  0
 10 11  2  0
 11 12  1  0
 12 13  2  0
 13 14  1  0
  1 15  1  0
 15 16  2  0
 16 17  1  0
 17 18  2  0
 18 19  1  0
 19 20  1  0
 20 21  1  0
 20 22  1  0
 22 23  1  0
 23 24  1  0
 23 25  1  0
 23 26  1  0
 26 27  1  0
 13  4  1  0
 27 15  1  0
 12  7  1  0
 27 18  1  0
M  END
>  <AAScore>  (1) 
11271.827165338686

>  <RootName>  (1) 
./4ZLY/04_DeltaGEst/trajectory_03/rank_00/lead_0336

$$$$
