confid_0
     RDKit          3D

 27 30  0  0  0  0  0  0  0  0999 V2000
   24.2000   26.2400   35.6900 N   0  0  0  0  0  0  0  0  0  0  0  0
   24.8500   26.2800   34.4800 C   0  0  0  0  0  0  0  0  0  0  0  0
   24.3100   25.7400   33.5400 O   0  0  0  0  0  0  0  0  0  0  0  0
   26.1800   26.9700   34.4700 C   0  0  0  0  0  0  0  0  0  0  0  0
   26.6500   27.6000   35.5500 N   0  0  0  0  0  0  0  0  0  0  0  0
   27.7900   28.2700   35.6200 N   0  0  0  0  0  0  0  0  0  0  0  0
   28.5400   28.3000   34.5100 C   0  0  0  0  0  0  0  0  0  0  0  0
   29.7700   28.9400   34.5600 C   0  0  0  0  0  0  0  0  0  0  0  0
   30.7000   28.8900   33.5000 C   0  0  0  0  0  0  0  0  0  0  0  0
   30.3700   28.1400   32.3700 C   0  0  0  0  0  0  0  0  0  0  0  0
   29.1200   27.5200   32.2800 C   0  0  0  0  0  0  0  0  0  0  0  0
   28.2100   27.6100   33.3300 C   0  0  0  0  0  0  0  0  0  0  0  0
   26.9700   26.9700   33.3100 C   0  0  0  0  0  0  0  0  0  0  0  0
   26.5300   26.2400   32.2200 N   0  0  0  0  0  0  0  0  0  0  0  0
   22.8092   25.9097   35.8308 C   0  0  0  0  0  0  0  0  0  0  0  0
   22.3509   25.1694   36.8702 N   0  0  0  0  0  0  0  0  0  0  0  0
   21.0251   25.1317   36.6425 C   0  0  0  0  0  0  0  0  0  0  0  0
   19.9355   25.1310   37.6477 C   0  0  0  0  0  0  0  0  0  0  0  0
   18.8500   26.0050   36.9622 C   0  0  0  0  0  0  0  0  0  0  0  0
   19.4218   26.4666   35.6873 N   0  0  0  0  0  0  0  0  0  0  0  0
   20.7015   25.8684   35.5720 C   0  0  0  0  0  0  0  0  0  0  0  0
   21.8142   26.4231   35.0569 N   0  0  0  0  0  0  0  0  0  0  0  0
   21.8814   27.5651   34.1447 C   0  0  0  0  0  0  0  0  0  0  0  0
   18.5990   26.8365   34.5337 C   0  0  0  0  0  0  0  0  0  0  0  0
   17.8677   28.1523   34.7876 C   0  0  0  0  0  0  0  0  0  0  0  0
   16.9199   27.9925   35.7822 F   0  0  0  0  0  0  0  0  0  0  0  0
   17.2347   28.5600   33.6276 F   0  0  0  0  0  0  0  0  0  0  0  0
  1  2  1  0
  2  3  2  0
  2  4  1  0
  4  5  2  0
  5  6  1  0
  6  7  2  0
  7  8  1  0
  8  9  2  0
  9 10  1  0
 10 11  2  0
 11 12  1  0
 12 13  2  0
 13 14  1  0
  1 15  1  0
 15 16  2  0
 16 17  1  0
 17 18  1  0
 18 19  1  0
 19 20  1  0
 20 21  1  0
 21 22  1  0
 22 23  1  0
 20 24  1  0
 24 25  1  0
 25 26  1  0
 25 27  1  0
 13  4  1  0
 22 15  1  0
 12  7  1  0
 21 17  2  0
M  END
>  <AAScore>  (1) 
143.72538515503788

>  <RootName>  (1) 
./4ZLY/04_DeltaGEst/trajectory_04/rank_00/lead_0040

$$$$
