confid_11
     RDKit          3D

 27 30  0  0  0  0  0  0  0  0999 V2000
   24.4800   26.1000   36.1300 N   0  0  0  0  0  0  0  0  0  0  0  0
   25.2500   26.2500   34.9900 C   0  0  0  0  0  0  0  0  0  0  0  0
   24.7400   25.7600   33.9900 O   0  0  0  0  0  0  0  0  0  0  0  0
   26.5900   26.8900   34.9600 C   0  0  0  0  0  0  0  0  0  0  0  0
   27.0600   27.2400   36.1600 N   0  0  0  0  0  0  0  0  0  0  0  0
   28.3000   27.7100   36.2400 N   0  0  0  0  0  0  0  0  0  0  0  0
   29.0500   27.9600   35.1500 C   0  0  0  0  0  0  0  0  0  0  0  0
   30.3400   28.4900   35.2600 C   0  0  0  0  0  0  0  0  0  0  0  0
   31.1100   28.8200   34.1400 C   0  0  0  0  0  0  0  0  0  0  0  0
   30.5200   28.6700   32.8800 C   0  0  0  0  0  0  0  0  0  0  0  0
   29.2900   28.0200   32.7700 C   0  0  0  0  0  0  0  0  0  0  0  0
   28.5200   27.7100   33.8900 C   0  0  0  0  0  0  0  0  0  0  0  0
   27.2700   27.0800   33.7600 C   0  0  0  0  0  0  0  0  0  0  0  0
   26.7500   26.8800   32.4900 N   0  0  0  0  0  0  0  0  0  0  0  0
   23.0731   25.7978   36.1501 C   0  0  0  0  0  0  0  0  0  0  0  0
   22.3313   25.5824   37.2903 C   0  0  0  0  0  0  0  0  0  0  0  0
   21.0433   25.3763   36.8318 C   0  0  0  0  0  0  0  0  0  0  0  0
   19.8690   25.2206   37.7769 C   0  0  0  0  0  0  0  0  0  0  0  0
   18.6010   24.8624   37.1275 N   0  0  0  0  0  0  0  0  0  0  0  0
   17.8076   25.8672   36.4645 C   0  0  0  0  0  0  0  0  0  0  0  0
   16.5588   25.7209   36.3641 O   0  0  0  0  0  0  0  0  0  0  0  0
   18.4625   27.0342   35.7824 C   0  0  0  0  0  0  0  0  0  0  0  0
   19.0861   26.6135   34.4453 C   0  0  0  0  0  0  0  0  0  0  0  0
   19.9447   25.3400   34.5249 C   0  0  0  0  0  0  0  0  0  0  0  0
   21.0495   25.4846   35.4739 N   0  0  0  0  0  0  0  0  0  0  0  0
   22.2821   25.7427   35.0627 N   0  0  0  0  0  0  0  0  0  0  0  0
   18.0536   23.5113   37.2821 C   0  0  0  0  0  0  0  0  0  0  0  0
  1  2  1  0
  2  3  2  0
  2  4  1  0
  4  5  2  0
  5  6  1  0
  6  7  2  0
  7  8  1  0
  8  9  2  0
  9 10  1  0
 10 11  2  0
 11 12  1  0
 12 13  2  0
 13 14  1  0
  1 15  1  0
 15 16  1  0
 16 17  2  0
 17 18  1  0
 18 19  1  0
 19 20  1  0
 20 21  2  0
 20 22  1  0
 22 23  1  0
 23 24  1  0
 24 25  1  0
 25 26  1  0
 19 27  1  0
 13  4  1  0
 26 15  2  0
 12  7  1  0
 25 17  1  0
M  END
>  <AAScore>  (1) 
1008.886501966012

>  <RootName>  (1) 
./4ZLY/04_DeltaGEst/trajectory_00/rank_00/lead_0433

$$$$
