confid_13
     RDKit          3D

 30 34  0  0  0  0  0  0  0  0999 V2000
   24.5500   26.3900   36.2500 N   0  0  0  0  0  0  0  0  0  0  0  0
   25.6000   26.1300   35.4000 C   0  0  0  0  0  0  0  0  0  0  0  0
   25.4300   25.4300   34.4200 O   0  0  0  0  0  0  0  0  0  0  0  0
   26.9800   26.6300   35.7100 C   0  0  0  0  0  0  0  0  0  0  0  0
   27.3200   26.8200   36.9800 N   0  0  0  0  0  0  0  0  0  0  0  0
   28.4700   27.4000   37.3100 N   0  0  0  0  0  0  0  0  0  0  0  0
   29.4000   27.6300   36.3700 C   0  0  0  0  0  0  0  0  0  0  0  0
   30.6600   28.0500   36.8000 C   0  0  0  0  0  0  0  0  0  0  0  0
   31.5700   28.3600   35.7800 C   0  0  0  0  0  0  0  0  0  0  0  0
   31.3700   28.1000   34.4300 C   0  0  0  0  0  0  0  0  0  0  0  0
   30.1200   27.5900   34.0500 C   0  0  0  0  0  0  0  0  0  0  0  0
   29.1500   27.3400   35.0300 C   0  0  0  0  0  0  0  0  0  0  0  0
   27.8800   26.8900   34.6600 C   0  0  0  0  0  0  0  0  0  0  0  0
   27.4800   26.6100   33.3700 N   0  0  0  0  0  0  0  0  0  0  0  0
   23.2187   25.8709   36.0860 C   0  0  0  0  0  0  0  0  0  0  0  0
   23.0292   24.7465   35.4484 N   0  0  0  0  0  0  0  0  0  0  0  0
   21.7595   24.1041   35.2729 C   0  0  0  0  0  0  0  0  0  0  0  0
   20.7443   24.7415   34.7030 C   0  0  0  0  0  0  0  0  0  0  0  0
   19.2631   24.5910   34.5228 C   0  0  0  0  0  0  0  0  0  0  0  0
   19.0812   25.8361   33.9281 O   0  0  0  0  0  0  0  0  0  0  0  0
   20.4582   26.0343   33.9905 C   0  0  1  0  0  0  0  0  0  0  0  0
   20.8416   27.3233   34.7458 C   0  0  0  0  0  0  0  0  0  0  0  0
   21.0659   27.1374   36.2224 C   0  0  0  0  0  0  0  0  0  0  0  0
   22.1115   26.5500   36.7969 C   0  0  0  0  0  0  0  0  0  0  0  0
   22.0590   26.6552   38.1860 O   0  0  0  0  0  0  0  0  0  0  0  0
   20.8798   27.3431   38.6044 C   0  0  0  0  0  0  0  0  0  0  0  0
   21.2541   28.6175   39.3674 C   0  0  0  0  0  0  0  0  0  0  0  0
   19.9976   26.4137   39.4438 C   0  0  0  0  0  0  0  0  0  0  0  0
   20.2385   27.6648   37.2926 C   0  0  0  0  0  0  0  0  0  0  0  0
   19.1610   28.3006   37.1365 O   0  0  0  0  0  0  0  0  0  0  0  0
  1  2  1  0
  2  3  2  0
  2  4  1  0
  4  5  2  0
  5  6  1  0
  6  7  2  0
  7  8  1  0
  8  9  2  0
  9 10  1  0
 10 11  2  0
 11 12  1  0
 12 13  2  0
 13 14  1  0
  1 15  1  0
 15 16  2  0
 16 17  1  0
 17 18  2  0
 18 19  1  0
 19 20  1  0
 20 21  1  0
 21 22  1  1
 22 23  1  0
 23 24  2  0
 24 25  1  0
 25 26  1  0
 26 27  1  0
 26 28  1  0
 26 29  1  0
 29 30  2  0
 13  4  1  0
 24 15  1  0
 12  7  1  0
 21 18  1  0
 29 23  1  0
M  END
>  <AAScore>  (1) 
5325.367750406825

>  <RootName>  (1) 
./4ZLY/04_DeltaGEst/trajectory_01/rank_00/lead_0206

$$$$
