confid_16
     RDKit          3D

 27 30  0  0  0  0  0  0  0  0999 V2000
   24.2000   26.2400   35.6900 N   0  0  0  0  0  0  0  0  0  0  0  0
   24.8500   26.2800   34.4800 C   0  0  0  0  0  0  0  0  0  0  0  0
   24.3100   25.7400   33.5400 O   0  0  0  0  0  0  0  0  0  0  0  0
   26.1800   26.9700   34.4700 C   0  0  0  0  0  0  0  0  0  0  0  0
   26.6500   27.6000   35.5500 N   0  0  0  0  0  0  0  0  0  0  0  0
   27.7900   28.2700   35.6200 N   0  0  0  0  0  0  0  0  0  0  0  0
   28.5400   28.3000   34.5100 C   0  0  0  0  0  0  0  0  0  0  0  0
   29.7700   28.9400   34.5600 C   0  0  0  0  0  0  0  0  0  0  0  0
   30.7000   28.8900   33.5000 C   0  0  0  0  0  0  0  0  0  0  0  0
   30.3700   28.1400   32.3700 C   0  0  0  0  0  0  0  0  0  0  0  0
   29.1200   27.5200   32.2800 C   0  0  0  0  0  0  0  0  0  0  0  0
   28.2100   27.6100   33.3300 C   0  0  0  0  0  0  0  0  0  0  0  0
   26.9700   26.9700   33.3100 C   0  0  0  0  0  0  0  0  0  0  0  0
   26.5300   26.2400   32.2200 N   0  0  0  0  0  0  0  0  0  0  0  0
   22.7872   26.0182   35.8558 C   0  0  0  0  0  0  0  0  0  0  0  0
   22.3472   25.3963   36.9827 N   0  0  0  0  0  0  0  0  0  0  0  0
   21.0295   25.1582   37.2129 C   0  0  0  0  0  0  0  0  0  0  0  0
   20.0635   25.5619   36.2821 C   0  0  0  0  0  0  0  0  0  0  0  0
   18.6052   25.2803   36.5632 C   0  0  0  0  0  0  0  0  0  0  0  0
   17.7262   25.7037   35.4633 N   0  0  0  0  0  0  0  0  0  0  0  0
   16.4126   25.1163   35.3513 C   0  0  0  0  0  0  0  0  0  0  0  0
   15.9177   24.4956   36.3314 O   0  0  0  0  0  0  0  0  0  0  0  0
   15.6088   25.2207   34.0909 C   0  0  0  0  0  0  0  0  0  0  0  0
   18.1051   26.8889   34.6836 C   0  0  0  0  0  0  0  0  0  0  0  0
   19.4891   26.6795   34.0775 C   0  0  0  0  0  0  0  0  0  0  0  0
   20.4823   26.2504   35.1248 C   0  0  0  0  0  0  0  0  0  0  0  0
   21.8506   26.4709   34.9112 C   0  0  0  0  0  0  0  0  0  0  0  0
  1  2  1  0
  2  3  2  0
  2  4  1  0
  4  5  2  0
  5  6  1  0
  6  7  2  0
  7  8  1  0
  8  9  2  0
  9 10  1  0
 10 11  2  0
 11 12  1  0
 12 13  2  0
 13 14  1  0
  1 15  1  0
 15 16  2  0
 16 17  1  0
 17 18  2  0
 18 19  1  0
 19 20  1  0
 20 21  1  0
 21 22  2  0
 21 23  1  0
 20 24  1  0
 24 25  1  0
 25 26  1  0
 26 27  2  0
 13  4  1  0
 27 15  1  0
 12  7  1  0
 26 18  1  0
M  END
>  <AAScore>  (1) 
266.596262053911

>  <RootName>  (1) 
./4ZLY/04_DeltaGEst/trajectory_04/rank_00/lead_0109

$$$$
