confid_4
     RDKit          3D

 25 27  0  0  0  0  0  0  0  0999 V2000
   24.4800   26.1000   36.1300 N   0  0  0  0  0  0  0  0  0  0  0  0
   25.2500   26.2500   34.9900 C   0  0  0  0  0  0  0  0  0  0  0  0
   24.7400   25.7600   33.9900 O   0  0  0  0  0  0  0  0  0  0  0  0
   26.5900   26.8900   34.9600 C   0  0  0  0  0  0  0  0  0  0  0  0
   27.0600   27.2400   36.1600 N   0  0  0  0  0  0  0  0  0  0  0  0
   28.3000   27.7100   36.2400 N   0  0  0  0  0  0  0  0  0  0  0  0
   29.0500   27.9600   35.1500 C   0  0  0  0  0  0  0  0  0  0  0  0
   30.3400   28.4900   35.2600 C   0  0  0  0  0  0  0  0  0  0  0  0
   31.1100   28.8200   34.1400 C   0  0  0  0  0  0  0  0  0  0  0  0
   30.5200   28.6700   32.8800 C   0  0  0  0  0  0  0  0  0  0  0  0
   29.2900   28.0200   32.7700 C   0  0  0  0  0  0  0  0  0  0  0  0
   28.5200   27.7100   33.8900 C   0  0  0  0  0  0  0  0  0  0  0  0
   27.2700   27.0800   33.7600 C   0  0  0  0  0  0  0  0  0  0  0  0
   26.7500   26.8800   32.4900 N   0  0  0  0  0  0  0  0  0  0  0  0
   23.1219   25.5287   36.1422 C   0  0  1  0  0  0  0  0  0  0  0  0
   22.7190   25.1091   37.5799 C   0  0  0  0  0  0  0  0  0  0  0  0
   21.9823   26.2363   38.3119 C   0  0  0  0  0  0  0  0  0  0  0  0
   20.6545   26.6107   37.6051 C   0  0  2  0  0  0  0  0  0  0  0  0
   19.5449   25.8788   38.2417 N   0  0  0  0  0  0  0  0  0  0  0  0
   17.9791   26.4846   37.7723 S   0  0  0  0  0  6  0  0  0  0  0  0
   17.6806   26.0983   36.3508 O   0  0  0  0  0  0  0  0  0  0  0  0
   16.9418   25.8675   38.6670 O   0  0  0  0  0  0  0  0  0  0  0  0
   17.8790   28.2563   37.9376 C   0  0  0  0  0  0  0  0  0  0  0  0
   20.7088   26.3600   36.0710 C   0  0  0  0  0  0  0  0  0  0  0  0
   22.1262   26.5387   35.5178 C   0  0  0  0  0  0  0  0  0  0  0  0
  1  2  1  0
  2  3  2  0
  2  4  1  0
  4  5  2  0
  5  6  1  0
  6  7  2  0
  7  8  1  0
  8  9  2  0
  9 10  1  0
 10 11  2  0
 11 12  1  0
 12 13  2  0
 13 14  1  0
 15  1  1  1
 15 16  1  0
 16 17  1  0
 17 18  1  0
 18 19  1  1
 19 20  1  0
 20 21  2  0
 20 22  2  0
 20 23  1  0
 18 24  1  0
 24 25  1  0
 13  4  1  0
 25 15  1  0
 12  7  1  0
M  END
>  <AAScore>  (1) 
436.6721020363432

>  <RootName>  (1) 
./4ZLY/04_DeltaGEst/trajectory_00/rank_00/lead_0401

$$$$
