confid_9
     RDKit          3D

 28 31  0  0  0  0  0  0  0  0999 V2000
   24.2000   26.2400   35.6900 N   0  0  0  0  0  0  0  0  0  0  0  0
   24.8500   26.2800   34.4800 C   0  0  0  0  0  0  0  0  0  0  0  0
   24.3100   25.7400   33.5400 O   0  0  0  0  0  0  0  0  0  0  0  0
   26.1800   26.9700   34.4700 C   0  0  0  0  0  0  0  0  0  0  0  0
   26.6500   27.6000   35.5500 N   0  0  0  0  0  0  0  0  0  0  0  0
   27.7900   28.2700   35.6200 N   0  0  0  0  0  0  0  0  0  0  0  0
   28.5400   28.3000   34.5100 C   0  0  0  0  0  0  0  0  0  0  0  0
   29.7700   28.9400   34.5600 C   0  0  0  0  0  0  0  0  0  0  0  0
   30.7000   28.8900   33.5000 C   0  0  0  0  0  0  0  0  0  0  0  0
   30.3700   28.1400   32.3700 C   0  0  0  0  0  0  0  0  0  0  0  0
   29.1200   27.5200   32.2800 C   0  0  0  0  0  0  0  0  0  0  0  0
   28.2100   27.6100   33.3300 C   0  0  0  0  0  0  0  0  0  0  0  0
   26.9700   26.9700   33.3100 C   0  0  0  0  0  0  0  0  0  0  0  0
   26.5300   26.2400   32.2200 N   0  0  0  0  0  0  0  0  0  0  0  0
   22.8134   25.8932   35.8326 C   0  0  0  0  0  0  0  0  0  0  0  0
   22.3655   25.1456   36.8713 N   0  0  0  0  0  0  0  0  0  0  0  0
   21.0406   25.0891   36.6428 C   0  0  0  0  0  0  0  0  0  0  0  0
   19.9501   25.0677   37.6456 C   0  0  0  0  0  0  0  0  0  0  0  0
   18.8516   25.9241   36.9590 C   0  0  0  0  0  0  0  0  0  0  0  0
   19.4162   26.3990   35.6849 N   0  0  0  0  0  0  0  0  0  0  0  0
   20.7063   25.8216   35.5729 C   0  0  0  0  0  0  0  0  0  0  0  0
   21.8113   26.3919   35.0580 N   0  0  0  0  0  0  0  0  0  0  0  0
   21.8633   27.5331   34.1438 C   0  0  0  0  0  0  0  0  0  0  0  0
   18.5856   26.7266   34.5231 C   0  0  0  0  0  0  0  0  0  0  0  0
   17.7347   27.9699   34.7827 C   0  0  0  0  0  0  0  0  0  0  0  0
   18.5410   29.0243   35.1726 F   0  0  0  0  0  0  0  0  0  0  0  0
   16.8012   27.7180   35.7715 F   0  0  0  0  0  0  0  0  0  0  0  0
   17.0690   28.3199   33.6222 F   0  0  0  0  0  0  0  0  0  0  0  0
  1  2  1  0
  2  3  2  0
  2  4  1  0
  4  5  2  0
  5  6  1  0
  6  7  2  0
  7  8  1  0
  8  9  2  0
  9 10  1  0
 10 11  2  0
 11 12  1  0
 12 13  2  0
 13 14  1  0
  1 15  1  0
 15 16  2  0
 16 17  1  0
 17 18  1  0
 18 19  1  0
 19 20  1  0
 20 21  1  0
 21 22  1  0
 22 23  1  0
 20 24  1  0
 24 25  1  0
 25 26  1  0
 25 27  1  0
 25 28  1  0
 13  4  1  0
 22 15  1  0
 12  7  1  0
 21 17  2  0
M  END
>  <AAScore>  (1) 
203.71506414784184

>  <RootName>  (1) 
./4ZLY/04_DeltaGEst/trajectory_04/rank_00/lead_0172

$$$$
