confid_0
     RDKit          3D

 27 30  0  0  0  0  0  0  0  0999 V2000
   24.4800   26.1000   36.1300 N   0  0  0  0  0  0  0  0  0  0  0  0
   25.2500   26.2500   34.9900 C   0  0  0  0  0  0  0  0  0  0  0  0
   24.7400   25.7600   33.9900 O   0  0  0  0  0  0  0  0  0  0  0  0
   26.5900   26.8900   34.9600 C   0  0  0  0  0  0  0  0  0  0  0  0
   27.0600   27.2400   36.1600 N   0  0  0  0  0  0  0  0  0  0  0  0
   28.3000   27.7100   36.2400 N   0  0  0  0  0  0  0  0  0  0  0  0
   29.0500   27.9600   35.1500 C   0  0  0  0  0  0  0  0  0  0  0  0
   30.3400   28.4900   35.2600 C   0  0  0  0  0  0  0  0  0  0  0  0
   31.1100   28.8200   34.1400 C   0  0  0  0  0  0  0  0  0  0  0  0
   30.5200   28.6700   32.8800 C   0  0  0  0  0  0  0  0  0  0  0  0
   29.2900   28.0200   32.7700 C   0  0  0  0  0  0  0  0  0  0  0  0
   28.5200   27.7100   33.8900 C   0  0  0  0  0  0  0  0  0  0  0  0
   27.2700   27.0800   33.7600 C   0  0  0  0  0  0  0  0  0  0  0  0
   26.7500   26.8800   32.4900 N   0  0  0  0  0  0  0  0  0  0  0  0
   23.4732   25.0816   36.3059 C   0  0  0  0  0  0  0  0  0  0  0  0
   23.6053   23.8974   35.6502 N   0  0  0  0  0  0  0  0  0  0  0  0
   22.7340   22.8736   35.8113 C   0  0  0  0  0  0  0  0  0  0  0  0
   21.6769   22.9831   36.7182 C   0  0  0  0  0  0  0  0  0  0  0  0
   20.6918   21.8523   36.8457 C   0  0  0  0  0  0  0  0  0  0  0  0
   20.1202   21.7951   38.2258 C   0  0  0  0  0  0  0  0  0  0  0  0
   19.7224   20.6901   38.6855 O   0  0  0  0  0  0  0  0  0  0  0  0
   19.9885   22.9975   39.0024 N   0  0  0  0  0  0  0  0  0  0  0  0
   20.3557   24.2977   38.4236 C   0  0  0  0  0  0  0  0  0  0  0  0
   21.5080   24.1831   37.4403 C   0  0  0  0  0  0  0  0  0  0  0  0
   22.3795   25.2757   37.1843 C   0  0  0  0  0  0  0  0  0  0  0  0
   22.1558   26.6224   37.8352 C   0  0  0  0  0  0  0  0  0  0  0  0
   19.3542   22.9393   40.3219 C   0  0  0  0  0  0  0  0  0  0  0  0
  1  2  1  0
  2  3  2  0
  2  4  1  0
  4  5  2  0
  5  6  1  0
  6  7  2  0
  7  8  1  0
  8  9  2  0
  9 10  1  0
 10 11  2  0
 11 12  1  0
 12 13  2  0
 13 14  1  0
  1 15  1  0
 15 16  2  0
 16 17  1  0
 17 18  2  0
 18 19  1  0
 19 20  1  0
 20 21  2  0
 20 22  1  0
 22 23  1  0
 23 24  1  0
 24 25  2  0
 25 26  1  0
 22 27  1  0
 13  4  1  0
 25 15  1  0
 12  7  1  0
 24 18  1  0
M  END
>  <AAScore>  (1) 
3923.298041245097

>  <RootName>  (1) 
./4ZLY/04_DeltaGEst/trajectory_00/rank_01/lead_0229

$$$$
