confid_15
     RDKit          3D

 27 30  0  0  0  0  0  0  0  0999 V2000
   24.5700   26.8800   35.5900 N   0  0  0  0  0  0  0  0  0  0  0  0
   25.5000   26.4000   34.6900 C   0  0  0  0  0  0  0  0  0  0  0  0
   25.1700   25.5200   33.9100 O   0  0  0  0  0  0  0  0  0  0  0  0
   26.8400   27.0200   34.7400 C   0  0  0  0  0  0  0  0  0  0  0  0
   27.3800   27.2800   35.9400 N   0  0  0  0  0  0  0  0  0  0  0  0
   28.6200   27.7400   36.0300 N   0  0  0  0  0  0  0  0  0  0  0  0
   29.3800   28.0000   34.9600 C   0  0  0  0  0  0  0  0  0  0  0  0
   30.6700   28.5000   35.1300 C   0  0  0  0  0  0  0  0  0  0  0  0
   31.5400   28.6100   34.0300 C   0  0  0  0  0  0  0  0  0  0  0  0
   31.0900   28.2200   32.7700 C   0  0  0  0  0  0  0  0  0  0  0  0
   29.8000   27.7000   32.6000 C   0  0  0  0  0  0  0  0  0  0  0  0
   28.9600   27.5500   33.7100 C   0  0  0  0  0  0  0  0  0  0  0  0
   27.6600   27.0300   33.5900 C   0  0  0  0  0  0  0  0  0  0  0  0
   27.1600   26.7400   32.3400 N   0  0  0  0  0  0  0  0  0  0  0  0
   23.1761   26.5588   35.5196 C   0  0  0  0  0  0  0  0  0  0  0  0
   22.5696   25.9805   36.5057 N   0  0  0  0  0  0  0  0  0  0  0  0
   21.1776   26.0236   36.2268 C   0  0  0  0  0  0  0  0  0  0  0  0
   20.9413   26.6810   35.1046 C   0  0  0  0  0  0  0  0  0  0  0  0
   19.6301   26.7523   34.3857 C   0  0  0  0  0  0  0  0  0  0  0  0
   19.8127   27.1204   32.9701 N   0  0  0  0  0  0  0  0  0  0  0  0
   18.6320   27.4806   32.1824 C   0  0  0  0  0  0  0  0  0  0  0  0
   21.0995   27.0251   32.3115 C   0  0  0  0  0  0  0  0  0  0  0  0
   21.1874   27.2171   31.0677 O   0  0  0  0  0  0  0  0  0  0  0  0
   22.3411   26.6522   33.0836 C   0  0  0  0  0  0  0  0  0  0  0  0
   22.4791   25.2738   33.0603 F   0  0  0  0  0  0  0  0  0  0  0  0
   23.4465   27.2315   32.4842 F   0  0  0  0  0  0  0  0  0  0  0  0
   22.2213   27.1609   34.5251 C   0  0  2  0  0  0  0  0  0  0  0  0
  1  2  1  0
  2  3  2  0
  2  4  1  0
  4  5  2  0
  5  6  1  0
  6  7  2  0
  7  8  1  0
  8  9  2  0
  9 10  1  0
 10 11  2  0
 11 12  1  0
 12 13  2  0
 13 14  1  0
  1 15  1  0
 15 16  2  0
 16 17  1  0
 17 18  2  0
 18 19  1  0
 19 20  1  0
 20 21  1  0
 20 22  1  0
 22 23  2  0
 22 24  1  0
 24 25  1  0
 24 26  1  0
 27 24  1  6
 13  4  1  0
 27 15  1  0
 12  7  1  0
 27 18  1  0
M  END
>  <AAScore>  (1) 
1609.6512111951104

>  <RootName>  (1) 
./4ZLY/04_DeltaGEst/trajectory_05/rank_00/lead_0396

$$$$
