confid_1
     RDKit          3D

 27 30  0  0  0  0  0  0  0  0999 V2000
   24.4800   26.1000   36.1300 N   0  0  0  0  0  0  0  0  0  0  0  0
   25.2500   26.2500   34.9900 C   0  0  0  0  0  0  0  0  0  0  0  0
   24.7400   25.7600   33.9900 O   0  0  0  0  0  0  0  0  0  0  0  0
   26.5900   26.8900   34.9600 C   0  0  0  0  0  0  0  0  0  0  0  0
   27.0600   27.2400   36.1600 N   0  0  0  0  0  0  0  0  0  0  0  0
   28.3000   27.7100   36.2400 N   0  0  0  0  0  0  0  0  0  0  0  0
   29.0500   27.9600   35.1500 C   0  0  0  0  0  0  0  0  0  0  0  0
   30.3400   28.4900   35.2600 C   0  0  0  0  0  0  0  0  0  0  0  0
   31.1100   28.8200   34.1400 C   0  0  0  0  0  0  0  0  0  0  0  0
   30.5200   28.6700   32.8800 C   0  0  0  0  0  0  0  0  0  0  0  0
   29.2900   28.0200   32.7700 C   0  0  0  0  0  0  0  0  0  0  0  0
   28.5200   27.7100   33.8900 C   0  0  0  0  0  0  0  0  0  0  0  0
   27.2700   27.0800   33.7600 C   0  0  0  0  0  0  0  0  0  0  0  0
   26.7500   26.8800   32.4900 N   0  0  0  0  0  0  0  0  0  0  0  0
   23.4901   25.0730   36.3391 C   0  0  0  0  0  0  0  0  0  0  0  0
   23.4026   24.0049   35.4972 N   0  0  0  0  0  0  0  0  0  0  0  0
   22.4887   23.0127   35.6741 C   0  0  0  0  0  0  0  0  0  0  0  0
   22.4711   21.8409   34.7351 C   0  0  0  0  0  0  0  0  0  0  0  0
   21.1105   21.3071   34.5862 N   0  0  0  0  0  0  0  0  0  0  0  0
   20.2279   21.2795   35.7271 C   0  0  0  0  0  0  0  0  0  0  0  0
   19.1234   20.6742   35.6666 O   0  0  0  0  0  0  0  0  0  0  0  0
   20.6319   21.9383   37.0150 C   0  0  0  0  0  0  0  0  0  0  0  0
   21.6073   23.0586   36.7683 C   0  0  0  0  0  0  0  0  0  0  0  0
   21.6981   24.1327   37.6622 C   0  0  0  0  0  0  0  0  0  0  0  0
   22.6351   25.1442   37.4470 C   0  0  0  0  0  0  0  0  0  0  0  0
   20.7055   20.6967   33.3137 C   0  0  0  0  0  0  0  0  0  0  0  0
   19.7395   21.6113   32.5690 C   0  0  0  0  0  0  0  0  0  0  0  0
  1  2  1  0
  2  3  2  0
  2  4  1  0
  4  5  2  0
  5  6  1  0
  6  7  2  0
  7  8  1  0
  8  9  2  0
  9 10  1  0
 10 11  2  0
 11 12  1  0
 12 13  2  0
 13 14  1  0
  1 15  1  0
 15 16  2  0
 16 17  1  0
 17 18  1  0
 18 19  1  0
 19 20  1  0
 20 21  2  0
 20 22  1  0
 22 23  1  0
 23 24  1  0
 24 25  2  0
 19 26  1  0
 26 27  1  0
 13  4  1  0
 25 15  1  0
 12  7  1  0
 23 17  2  0
M  END
>  <AAScore>  (1) 
267.1310485333065

>  <RootName>  (1) 
./4ZLY/04_DeltaGEst/trajectory_00/rank_01/lead_0174

$$$$
