confid_12
     RDKit          3D

 27 30  0  0  0  0  0  0  0  0999 V2000
   24.5500   26.3900   36.2500 N   0  0  0  0  0  0  0  0  0  0  0  0
   25.6000   26.1300   35.4000 C   0  0  0  0  0  0  0  0  0  0  0  0
   25.4300   25.4300   34.4200 O   0  0  0  0  0  0  0  0  0  0  0  0
   26.9800   26.6300   35.7100 C   0  0  0  0  0  0  0  0  0  0  0  0
   27.3200   26.8200   36.9800 N   0  0  0  0  0  0  0  0  0  0  0  0
   28.4700   27.4000   37.3100 N   0  0  0  0  0  0  0  0  0  0  0  0
   29.4000   27.6300   36.3700 C   0  0  0  0  0  0  0  0  0  0  0  0
   30.6600   28.0500   36.8000 C   0  0  0  0  0  0  0  0  0  0  0  0
   31.5700   28.3600   35.7800 C   0  0  0  0  0  0  0  0  0  0  0  0
   31.3700   28.1000   34.4300 C   0  0  0  0  0  0  0  0  0  0  0  0
   30.1200   27.5900   34.0500 C   0  0  0  0  0  0  0  0  0  0  0  0
   29.1500   27.3400   35.0300 C   0  0  0  0  0  0  0  0  0  0  0  0
   27.8800   26.8900   34.6600 C   0  0  0  0  0  0  0  0  0  0  0  0
   27.4800   26.6100   33.3700 N   0  0  0  0  0  0  0  0  0  0  0  0
   23.1741   25.9462   35.9901 C   0  0  0  0  0  0  0  0  0  0  0  0
   22.4610   25.5886   37.3158 C   0  0  0  0  0  0  0  0  0  0  0  0
   20.9754   25.9999   37.3269 C   0  0  0  0  0  0  0  0  0  0  0  0
   20.3277   25.8101   36.0129 N   0  0  0  0  0  0  0  0  0  0  0  0
   20.9686   26.5959   34.9229 C   0  0  0  0  0  0  0  0  0  0  0  0
   22.4150   27.0370   35.2273 C   0  0  0  0  0  0  0  0  0  0  0  0
   20.1624   24.3806   35.6740 C   0  0  0  0  0  0  0  0  0  0  0  0
   19.0272   24.2073   34.7127 C   0  0  0  0  0  0  0  0  0  0  0  0
   17.6910   24.4418   34.9529 C   0  0  0  0  0  0  0  0  0  0  0  0
   17.0191   24.1861   33.8153 N   0  0  0  0  0  0  0  0  0  0  0  0
   15.5737   24.2454   33.6488 C   0  0  0  0  0  0  0  0  0  0  0  0
   17.8561   23.7855   32.8702 N   0  0  0  0  0  0  0  0  0  0  0  0
   19.0979   23.7996   33.3939 C   0  0  0  0  0  0  0  0  0  0  0  0
  1  2  1  0
  2  3  2  0
  2  4  1  0
  4  5  2  0
  5  6  1  0
  6  7  2  0
  7  8  1  0
  8  9  2  0
  9 10  1  0
 10 11  2  0
 11 12  1  0
 12 13  2  0
 13 14  1  0
  1 15  1  0
 15 16  1  0
 16 17  1  0
 17 18  1  0
 18 19  1  0
 19 20  1  0
 18 21  1  0
 21 22  1  0
 22 23  2  0
 23 24  1  0
 24 25  1  0
 24 26  1  0
 26 27  2  0
 13  4  1  0
 20 15  1  0
 27 22  1  0
 12  7  1  0
M  END
>  <AAScore>  (1) 
1527.1646293240658

>  <RootName>  (1) 
./4ZLY/04_DeltaGEst/trajectory_01/rank_00/lead_0332

$$$$
