confid_1
     RDKit          3D

 28 31  0  0  0  0  0  0  0  0999 V2000
   24.5500   26.3900   36.2500 N   0  0  0  0  0  0  0  0  0  0  0  0
   25.6000   26.1300   35.4000 C   0  0  0  0  0  0  0  0  0  0  0  0
   25.4300   25.4300   34.4200 O   0  0  0  0  0  0  0  0  0  0  0  0
   26.9800   26.6300   35.7100 C   0  0  0  0  0  0  0  0  0  0  0  0
   27.3200   26.8200   36.9800 N   0  0  0  0  0  0  0  0  0  0  0  0
   28.4700   27.4000   37.3100 N   0  0  0  0  0  0  0  0  0  0  0  0
   29.4000   27.6300   36.3700 C   0  0  0  0  0  0  0  0  0  0  0  0
   30.6600   28.0500   36.8000 C   0  0  0  0  0  0  0  0  0  0  0  0
   31.5700   28.3600   35.7800 C   0  0  0  0  0  0  0  0  0  0  0  0
   31.3700   28.1000   34.4300 C   0  0  0  0  0  0  0  0  0  0  0  0
   30.1200   27.5900   34.0500 C   0  0  0  0  0  0  0  0  0  0  0  0
   29.1500   27.3400   35.0300 C   0  0  0  0  0  0  0  0  0  0  0  0
   27.8800   26.8900   34.6600 C   0  0  0  0  0  0  0  0  0  0  0  0
   27.4800   26.6100   33.3700 N   0  0  0  0  0  0  0  0  0  0  0  0
   31.0053   28.2813   38.2259 C   0  0  0  0  0  0  0  0  0  0  0  0
   30.8090   27.2725   39.1779 C   0  0  0  0  0  0  0  0  0  0  0  0
   31.1280   27.4646   40.5294 C   0  0  0  0  0  0  0  0  0  0  0  0
   30.8800   26.3589   41.3695 O   0  0  0  0  0  0  0  0  0  0  0  0
   30.7461   26.3470   42.7919 C   0  0  0  0  0  0  0  0  0  0  0  0
   32.0560   26.4188   43.4820 N   0  0  0  0  0  0  0  0  0  0  0  0
   32.4408   25.1463   44.1218 C   0  0  0  0  0  0  0  0  0  0  0  0
   32.7290   24.0227   43.1159 C   0  0  0  0  0  0  0  0  0  0  0  0
   33.0358   26.7759   42.6035 O   0  0  0  0  0  0  0  0  0  0  0  0
   33.2994   28.1410   42.8156 C   0  0  0  0  0  0  0  0  0  0  0  0
   32.1353   29.0283   42.3540 C   0  0  0  0  0  0  0  0  0  0  0  0
   31.6931   28.7140   40.9379 C   0  0  0  0  0  0  0  0  0  0  0  0
   31.8948   29.7129   39.9654 C   0  0  0  0  0  0  0  0  0  0  0  0
   31.5557   29.5008   38.6307 C   0  0  0  0  0  0  0  0  0  0  0  0
  1  2  1  0
  2  3  2  0
  2  4  1  0
  4  5  2  0
  5  6  1  0
  6  7  2  0
  7  8  1  0
  8  9  2  0
  9 10  1  0
 10 11  2  0
 11 12  1  0
 12 13  2  0
 13 14  1  0
  8 15  1  0
 15 16  2  0
 16 17  1  0
 17 18  1  0
 18 19  1  0
 19 20  1  0
 20 21  1  0
 21 22  1  0
 20 23  1  0
 23 24  1  0
 24 25  1  0
 25 26  1  0
 26 27  1  0
 27 28  2  0
 13  4  1  0
 28 15  1  0
 12  7  1  0
 26 17  2  0
M  END
>  <AAScore>  (1) 
64.5208009861457

>  <RootName>  (1) 
./4ZLY/04_DeltaGEst/trajectory_01/rank_01/lead_0320

$$$$
