confid_5
     RDKit          3D

 28 30  0  0  0  0  0  0  0  0999 V2000
   24.5500   26.3900   36.2500 N   0  0  0  0  0  0  0  0  0  0  0  0
   25.6000   26.1300   35.4000 C   0  0  0  0  0  0  0  0  0  0  0  0
   25.4300   25.4300   34.4200 O   0  0  0  0  0  0  0  0  0  0  0  0
   26.9800   26.6300   35.7100 C   0  0  0  0  0  0  0  0  0  0  0  0
   27.3200   26.8200   36.9800 N   0  0  0  0  0  0  0  0  0  0  0  0
   28.4700   27.4000   37.3100 N   0  0  0  0  0  0  0  0  0  0  0  0
   29.4000   27.6300   36.3700 C   0  0  0  0  0  0  0  0  0  0  0  0
   30.6600   28.0500   36.8000 C   0  0  0  0  0  0  0  0  0  0  0  0
   31.5700   28.3600   35.7800 C   0  0  0  0  0  0  0  0  0  0  0  0
   31.3700   28.1000   34.4300 C   0  0  0  0  0  0  0  0  0  0  0  0
   30.1200   27.5900   34.0500 C   0  0  0  0  0  0  0  0  0  0  0  0
   29.1500   27.3400   35.0300 C   0  0  0  0  0  0  0  0  0  0  0  0
   27.8800   26.8900   34.6600 C   0  0  0  0  0  0  0  0  0  0  0  0
   27.4800   26.6100   33.3700 N   0  0  0  0  0  0  0  0  0  0  0  0
   23.2139   25.7964   36.0833 C   0  0  0  0  0  0  0  0  0  0  0  0
   23.1420   24.4550   36.8376 C   0  0  0  0  0  0  0  0  0  0  0  0
   23.2771   24.6695   38.3539 C   0  0  0  0  0  0  0  0  0  0  0  0
   22.4873   25.8246   38.8170 N   0  0  0  0  0  0  0  0  0  0  0  0
   22.6259   26.2497   40.1918 C   0  0  0  0  0  0  0  0  0  0  0  0
   23.1671   25.4711   41.0277 O   0  0  0  0  0  0  0  0  0  0  0  0
   22.1271   27.6004   40.6510 C   0  0  0  0  0  0  0  0  0  0  0  0
   22.6915   28.0100   42.0231 C   0  0  0  0  0  0  0  0  0  0  0  0
   22.2225   29.4179   42.4149 C   0  0  0  0  0  0  0  0  0  0  0  0
   22.7937   29.8031   43.7257 N   0  0  0  0  0  0  0  0  0  0  0  0
   22.9620   31.2626   43.8081 C   0  0  0  0  0  0  0  0  0  0  0  0
   21.9338   29.3457   44.8330 C   0  0  0  0  0  0  0  0  0  0  0  0
   21.4854   26.4165   37.9120 C   0  0  0  0  0  0  0  0  0  0  0  0
   22.1161   26.7888   36.5573 C   0  0  0  0  0  0  0  0  0  0  0  0
  1  2  1  0
  2  3  2  0
  2  4  1  0
  4  5  2  0
  5  6  1  0
  6  7  2  0
  7  8  1  0
  8  9  2  0
  9 10  1  0
 10 11  2  0
 11 12  1  0
 12 13  2  0
 13 14  1  0
  1 15  1  0
 15 16  1  0
 16 17  1  0
 17 18  1  0
 18 19  1  0
 19 20  2  0
 19 21  1  0
 21 22  1  0
 22 23  1  0
 23 24  1  0
 24 25  1  0
 24 26  1  0
 18 27  1  0
 27 28  1  0
 13  4  1  0
 28 15  1  0
 12  7  1  0
M  END
>  <AAScore>  (1) 
692.9514840181726

>  <RootName>  (1) 
./4ZLY/04_DeltaGEst/trajectory_01/rank_00/lead_0491

$$$$
