confid_0
     RDKit          3D

 28 31  0  0  0  0  0  0  0  0999 V2000
   25.3300   26.2600   34.7600 N   0  0  0  0  0  0  0  0  0  0  0  0
   26.1200   25.9200   33.6900 C   0  0  0  0  0  0  0  0  0  0  0  0
   25.6300   25.1100   32.9400 O   0  0  0  0  0  0  0  0  0  0  0  0
   27.5200   26.3800   33.4600 C   0  0  0  0  0  0  0  0  0  0  0  0
   28.1600   26.6300   34.6100 N   0  0  0  0  0  0  0  0  0  0  0  0
   29.4800   26.8500   34.5700 N   0  0  0  0  0  0  0  0  0  0  0  0
   30.1900   26.7800   33.4400 C   0  0  0  0  0  0  0  0  0  0  0  0
   31.5600   27.0500   33.5000 C   0  0  0  0  0  0  0  0  0  0  0  0
   32.2700   27.2400   32.3100 C   0  0  0  0  0  0  0  0  0  0  0  0
   31.6100   27.2500   31.0800 C   0  0  0  0  0  0  0  0  0  0  0  0
   30.2700   26.8700   31.0600 C   0  0  0  0  0  0  0  0  0  0  0  0
   29.5100   26.6900   32.2300 C   0  0  0  0  0  0  0  0  0  0  0  0
   28.1400   26.4100   32.2000 C   0  0  0  0  0  0  0  0  0  0  0  0
   27.4300   26.1300   31.0500 N   0  0  0  0  0  0  0  0  0  0  0  0
   24.2930   25.4312   35.3163 C   0  0  0  0  0  0  0  0  0  0  0  0
   24.2998   24.1465   35.1176 N   0  0  0  0  0  0  0  0  0  0  0  0
   23.3216   23.2682   35.6867 C   0  0  0  0  0  0  0  0  0  0  0  0
   22.2153   23.7457   36.2857 C   0  0  0  0  0  0  0  0  0  0  0  0
   21.1548   22.7511   36.7110 C   0  0  0  0  0  0  0  0  0  0  0  0
   20.7401   21.9744   35.6009 O   0  0  0  0  0  0  0  0  0  0  0  0
   19.6063   22.5305   34.9505 C   0  0  2  0  0  0  0  0  0  0  0  0
   19.0461   21.4649   34.0065 C   0  0  0  0  0  0  0  0  0  0  0  0
   19.9783   23.7990   34.1517 C   0  0  0  0  0  0  0  0  0  0  0  0
   19.9112   24.9363   34.9986 O   0  0  0  0  0  0  0  0  0  0  0  0
   21.1345   25.6518   35.0504 C   0  0  0  0  0  0  0  0  0  0  0  0
   21.9605   25.2584   36.3039 C   0  0  1  0  0  0  0  0  0  0  0  0
   21.2000   25.6934   37.5810 C   0  0  0  0  0  0  0  0  0  0  0  0
   23.3163   26.0242   36.2948 C   0  0  0  0  0  0  0  0  0  0  0  0
  1  2  1  0
  2  3  2  0
  2  4  1  0
  4  5  2  0
  5  6  1  0
  6  7  2  0
  7  8  1  0
  8  9  2  0
  9 10  1  0
 10 11  2  0
 11 12  1  0
 12 13  2  0
 13 14  1  0
  1 15  1  0
 15 16  2  0
 16 17  1  0
 17 18  2  0
 18 19  1  0
 19 20  1  0
 20 21  1  0
 21 22  1  6
 21 23  1  0
 23 24  1  0
 24 25  1  0
 25 26  1  0
 26 27  1  1
 26 28  1  0
 13  4  1  0
 28 15  1  0
 12  7  1  0
 26 18  1  0
M  END
>  <AAScore>  (1) 
4721.710907558506

>  <RootName>  (1) 
./4ZLY/04_DeltaGEst/trajectory_03/rank_00/lead_0405

$$$$
