confid_19
     RDKit          3D

 29 31  0  0  0  0  0  0  0  0999 V2000
   24.5700   26.8800   35.5900 N   0  0  0  0  0  0  0  0  0  0  0  0
   25.5000   26.4000   34.6900 C   0  0  0  0  0  0  0  0  0  0  0  0
   25.1700   25.5200   33.9100 O   0  0  0  0  0  0  0  0  0  0  0  0
   26.8400   27.0200   34.7400 C   0  0  0  0  0  0  0  0  0  0  0  0
   27.3800   27.2800   35.9400 N   0  0  0  0  0  0  0  0  0  0  0  0
   28.6200   27.7400   36.0300 N   0  0  0  0  0  0  0  0  0  0  0  0
   29.3800   28.0000   34.9600 C   0  0  0  0  0  0  0  0  0  0  0  0
   30.6700   28.5000   35.1300 C   0  0  0  0  0  0  0  0  0  0  0  0
   31.5400   28.6100   34.0300 C   0  0  0  0  0  0  0  0  0  0  0  0
   31.0900   28.2200   32.7700 C   0  0  0  0  0  0  0  0  0  0  0  0
   29.8000   27.7000   32.6000 C   0  0  0  0  0  0  0  0  0  0  0  0
   28.9600   27.5500   33.7100 C   0  0  0  0  0  0  0  0  0  0  0  0
   27.6600   27.0300   33.5900 C   0  0  0  0  0  0  0  0  0  0  0  0
   27.1600   26.7400   32.3400 N   0  0  0  0  0  0  0  0  0  0  0  0
   33.1619   29.2670   34.2247 S   0  0  0  0  0  6  0  0  0  0  0  0
   34.1252   28.4344   33.4255 O   0  0  0  0  0  0  0  0  0  0  0  0
   33.5615   29.2101   35.6727 O   0  0  0  0  0  0  0  0  0  0  0  0
   33.1858   30.9657   33.6339 C   0  0  1  0  0  0  0  0  0  0  0  0
   32.3604   31.8702   34.5296 C   0  0  0  0  0  0  0  0  0  0  0  0
   33.2647   32.4462   35.5352 N   0  0  0  0  0  0  0  0  0  0  0  0
   34.6178   32.4679   34.9388 C   0  0  2  0  0  0  0  0  0  0  0  0
   34.5953   31.5687   33.6731 C   0  0  2  0  0  0  0  0  0  0  0  0
   34.9135   32.3862   32.3978 C   0  0  0  0  0  0  0  0  0  0  0  0
   35.1792   31.4945   31.1831 C   0  0  0  0  0  0  0  0  0  0  0  0
   35.6639   31.9399   35.9483 C   0  0  0  0  0  0  0  0  0  0  0  0
   35.8202   32.8250   37.1818 C   0  0  0  0  0  0  0  0  0  0  0  0
   32.8123   33.7935   35.9566 C   0  0  0  0  0  0  0  0  0  0  0  0
   31.5472   33.7199   36.8249 C   0  0  0  0  0  0  0  0  0  0  0  0
   31.7675   32.8985   38.0937 C   0  0  0  0  0  0  0  0  0  0  0  0
  1  2  1  0
  2  3  2  0
  2  4  1  0
  4  5  2  0
  5  6  1  0
  6  7  2  0
  7  8  1  0
  8  9  2  0
  9 10  1  0
 10 11  2  0
 11 12  1  0
 12 13  2  0
 13 14  1  0
  9 15  1  0
 15 16  2  0
 15 17  2  0
 18 15  1  1
 18 19  1  0
 19 20  1  0
 20 21  1  0
 21 22  1  0
 22 23  1  6
 23 24  1  0
 21 25  1  1
 25 26  1  0
 20 27  1  0
 27 28  1  0
 28 29  1  0
 13  4  1  0
 22 18  1  0
 12  7  1  0
M  END
>  <AAScore>  (1) 
-5.994613665709689

>  <RootName>  (1) 
./4ZLY/04_DeltaGEst/trajectory_05/rank_01/lead_0277

$$$$
