confid_3
     RDKit          3D

 25 28  0  0  0  0  0  0  0  0999 V2000
   24.6900   26.1200   35.5300 N   0  0  0  0  0  0  0  0  0  0  0  0
   25.6600   25.6700   34.6600 C   0  0  0  0  0  0  0  0  0  0  0  0
   25.2400   25.0100   33.7200 O   0  0  0  0  0  0  0  0  0  0  0  0
   27.0300   26.2200   34.8800 C   0  0  0  0  0  0  0  0  0  0  0  0
   27.3500   26.7300   36.0700 N   0  0  0  0  0  0  0  0  0  0  0  0
   28.5700   27.1800   36.3300 N   0  0  0  0  0  0  0  0  0  0  0  0
   29.5300   27.1100   35.3900 C   0  0  0  0  0  0  0  0  0  0  0  0
   30.8300   27.5700   35.6500 C   0  0  0  0  0  0  0  0  0  0  0  0
   31.8500   27.5400   34.6900 C   0  0  0  0  0  0  0  0  0  0  0  0
   31.5100   27.1200   33.4000 C   0  0  0  0  0  0  0  0  0  0  0  0
   30.2200   26.6300   33.1100 C   0  0  0  0  0  0  0  0  0  0  0  0
   29.2400   26.6600   34.1000 C   0  0  0  0  0  0  0  0  0  0  0  0
   27.9300   26.2600   33.8100 C   0  0  0  0  0  0  0  0  0  0  0  0
   27.5200   25.7100   32.6100 N   0  0  0  0  0  0  0  0  0  0  0  0
   31.1552   28.0681   36.9567 N   0  0  0  0  0  0  0  0  0  0  0  0
   32.0593   27.3963   37.8862 C   0  0  0  0  0  0  0  0  0  0  0  0
   31.9131   28.1781   39.2141 C   0  0  0  0  0  0  0  0  0  0  0  0
   30.9306   29.2425   38.8572 C   0  0  0  0  0  0  0  0  0  0  0  0
   30.4570   30.2605   39.6842 C   0  0  0  0  0  0  0  0  0  0  0  0
   29.5553   31.1890   39.1424 C   0  0  0  0  0  0  0  0  0  0  0  0
   29.1604   31.0820   37.7935 C   0  0  0  0  0  0  0  0  0  0  0  0
   28.0438   32.2366   37.0807 Cl  0  0  0  0  0  0  0  0  0  0  0  0
   29.6741   30.0392   37.0096 C   0  0  0  0  0  0  0  0  0  0  0  0
   30.5287   29.1469   37.5821 N   0  0  0  0  0  0  0  0  0  0  0  0
   29.1069   32.1183   39.8654 O   0  0  0  0  0  0  0  0  0  0  0  0
  1  2  1  0
  2  3  2  0
  2  4  1  0
  4  5  2  0
  5  6  1  0
  6  7  2  0
  7  8  1  0
  8  9  2  0
  9 10  1  0
 10 11  2  0
 11 12  1  0
 12 13  2  0
 13 14  1  0
  8 15  1  0
 15 16  1  0
 16 17  1  0
 17 18  1  0
 18 19  2  0
 19 20  1  0
 20 21  1  0
 21 22  1  0
 21 23  2  0
 23 24  1  0
 20 25  2  0
 13  4  1  0
 24 15  1  0
 12  7  1  0
 24 18  1  0
M  END
>  <AAScore>  (1) 
2.786988697572315

>  <RootName>  (1) 
./4ZLY/04_DeltaGEst/trajectory_02/rank_01/lead_0464

$$$$
