confid_9
     RDKit          3D

 27 30  0  0  0  0  0  0  0  0999 V2000
   24.2000   26.2400   35.6900 N   0  0  0  0  0  0  0  0  0  0  0  0
   24.8500   26.2800   34.4800 C   0  0  0  0  0  0  0  0  0  0  0  0
   24.3100   25.7400   33.5400 O   0  0  0  0  0  0  0  0  0  0  0  0
   26.1800   26.9700   34.4700 C   0  0  0  0  0  0  0  0  0  0  0  0
   26.6500   27.6000   35.5500 N   0  0  0  0  0  0  0  0  0  0  0  0
   27.7900   28.2700   35.6200 N   0  0  0  0  0  0  0  0  0  0  0  0
   28.5400   28.3000   34.5100 C   0  0  0  0  0  0  0  0  0  0  0  0
   29.7700   28.9400   34.5600 C   0  0  0  0  0  0  0  0  0  0  0  0
   30.7000   28.8900   33.5000 C   0  0  0  0  0  0  0  0  0  0  0  0
   30.3700   28.1400   32.3700 C   0  0  0  0  0  0  0  0  0  0  0  0
   29.1200   27.5200   32.2800 C   0  0  0  0  0  0  0  0  0  0  0  0
   28.2100   27.6100   33.3300 C   0  0  0  0  0  0  0  0  0  0  0  0
   26.9700   26.9700   33.3100 C   0  0  0  0  0  0  0  0  0  0  0  0
   26.5300   26.2400   32.2200 N   0  0  0  0  0  0  0  0  0  0  0  0
   22.7813   26.0644   35.8489 C   0  0  0  0  0  0  0  0  0  0  0  0
   21.9436   26.1200   34.7815 N   0  0  0  0  0  0  0  0  0  0  0  0
   20.6043   25.9718   34.9312 C   0  0  0  0  0  0  0  0  0  0  0  0
   20.0467   25.7567   36.1990 C   0  0  0  0  0  0  0  0  0  0  0  0
   18.5339   25.5907   36.2815 C   0  0  0  0  0  0  0  0  0  0  0  0
   18.0361   25.1530   37.5321 O   0  0  0  0  0  0  0  0  0  0  0  0
   18.6259   23.9276   37.9180 C   0  0  0  0  0  0  0  0  0  0  0  0
   19.7488   24.1842   38.9316 C   0  0  0  0  0  0  0  0  0  0  0  0
   20.4590   25.5349   38.7302 C   0  0  0  0  0  0  0  0  0  0  0  0
   19.6127   26.5771   39.0725 F   0  0  0  0  0  0  0  0  0  0  0  0
   21.5425   25.5809   39.5935 F   0  0  0  0  0  0  0  0  0  0  0  0
   20.9322   25.7210   37.3069 C   0  0  0  0  0  0  0  0  0  0  0  0
   22.2673   25.8765   37.0911 N   0  0  0  0  0  0  0  0  0  0  0  0
  1  2  1  0
  2  3  2  0
  2  4  1  0
  4  5  2  0
  5  6  1  0
  6  7  2  0
  7  8  1  0
  8  9  2  0
  9 10  1  0
 10 11  2  0
 11 12  1  0
 12 13  2  0
 13 14  1  0
  1 15  1  0
 15 16  2  0
 16 17  1  0
 17 18  2  0
 18 19  1  0
 19 20  1  0
 20 21  1  0
 21 22  1  0
 22 23  1  0
 23 24  1  0
 23 25  1  0
 23 26  1  0
 26 27  2  0
 13  4  1  0
 27 15  1  0
 12  7  1  0
 26 18  1  0
M  END
>  <AAScore>  (1) 
137.95961878067575

>  <RootName>  (1) 
./4ZLY/04_DeltaGEst/trajectory_04/rank_00/lead_0268

$$$$
