confid_3
     RDKit          3D

 29 32  0  0  0  0  0  0  0  0999 V2000
   24.5500   26.3900   36.2500 N   0  0  0  0  0  0  0  0  0  0  0  0
   25.6000   26.1300   35.4000 C   0  0  0  0  0  0  0  0  0  0  0  0
   25.4300   25.4300   34.4200 O   0  0  0  0  0  0  0  0  0  0  0  0
   26.9800   26.6300   35.7100 C   0  0  0  0  0  0  0  0  0  0  0  0
   27.3200   26.8200   36.9800 N   0  0  0  0  0  0  0  0  0  0  0  0
   28.4700   27.4000   37.3100 N   0  0  0  0  0  0  0  0  0  0  0  0
   29.4000   27.6300   36.3700 C   0  0  0  0  0  0  0  0  0  0  0  0
   30.6600   28.0500   36.8000 C   0  0  0  0  0  0  0  0  0  0  0  0
   31.5700   28.3600   35.7800 C   0  0  0  0  0  0  0  0  0  0  0  0
   31.3700   28.1000   34.4300 C   0  0  0  0  0  0  0  0  0  0  0  0
   30.1200   27.5900   34.0500 C   0  0  0  0  0  0  0  0  0  0  0  0
   29.1500   27.3400   35.0300 C   0  0  0  0  0  0  0  0  0  0  0  0
   27.8800   26.8900   34.6600 C   0  0  0  0  0  0  0  0  0  0  0  0
   27.4800   26.6100   33.3700 N   0  0  0  0  0  0  0  0  0  0  0  0
   31.0059   28.2812   38.2253 C   0  0  0  0  0  0  0  0  0  0  0  0
   30.7887   27.2702   39.1862 C   0  0  0  0  0  0  0  0  0  0  0  0
   31.1364   27.5198   40.5144 C   0  0  0  0  0  0  0  0  0  0  0  0
   30.9800   26.6278   41.6808 C   0  0  0  0  0  0  0  0  0  0  0  0
   31.6342   27.3355   42.8097 N   0  0  0  0  0  0  0  0  0  0  0  0
   30.8203   27.3265   44.0418 C   0  0  0  0  0  0  0  0  0  0  0  0
   30.7738   25.9269   44.6741 C   0  0  0  0  0  0  0  0  0  0  0  0
   32.1751   25.4137   45.0408 C   0  0  0  0  0  0  0  0  0  0  0  0
   32.0862   24.1474   45.8010 N   0  0  0  0  0  0  0  0  0  0  0  0
   33.3002   23.9553   46.6112 C   0  0  0  0  0  0  0  0  0  0  0  0
   31.9175   22.9962   44.8959 C   0  0  0  0  0  0  0  0  0  0  0  0
   31.9249   28.7160   42.3528 C   0  0  0  0  0  0  0  0  0  0  0  0
   31.6766   28.7086   40.8968 C   0  0  0  0  0  0  0  0  0  0  0  0
   31.9094   29.7310   39.9774 C   0  0  0  0  0  0  0  0  0  0  0  0
   31.5763   29.5113   38.6314 C   0  0  0  0  0  0  0  0  0  0  0  0
  1  2  1  0
  2  3  2  0
  2  4  1  0
  4  5  2  0
  5  6  1  0
  6  7  2  0
  7  8  1  0
  8  9  2  0
  9 10  1  0
 10 11  2  0
 11 12  1  0
 12 13  2  0
 13 14  1  0
  8 15  1  0
 15 16  2  0
 16 17  1  0
 17 18  1  0
 18 19  1  0
 19 20  1  0
 20 21  1  0
 21 22  1  0
 22 23  1  0
 23 24  1  0
 23 25  1  0
 19 26  1  0
 26 27  1  0
 27 28  1  0
 28 29  2  0
 13  4  1  0
 29 15  1  0
 12  7  1  0
 27 17  2  0
M  END
>  <AAScore>  (1) 
135.63297495000933

>  <RootName>  (1) 
./4ZLY/04_DeltaGEst/trajectory_01/rank_01/lead_0360

$$$$
