confid_5
     RDKit          3D

 27 30  0  0  0  0  0  0  0  0999 V2000
   25.3300   26.2600   34.7600 N   0  0  0  0  0  0  0  0  0  0  0  0
   26.1200   25.9200   33.6900 C   0  0  0  0  0  0  0  0  0  0  0  0
   25.6300   25.1100   32.9400 O   0  0  0  0  0  0  0  0  0  0  0  0
   27.5200   26.3800   33.4600 C   0  0  0  0  0  0  0  0  0  0  0  0
   28.1600   26.6300   34.6100 N   0  0  0  0  0  0  0  0  0  0  0  0
   29.4800   26.8500   34.5700 N   0  0  0  0  0  0  0  0  0  0  0  0
   30.1900   26.7800   33.4400 C   0  0  0  0  0  0  0  0  0  0  0  0
   31.5600   27.0500   33.5000 C   0  0  0  0  0  0  0  0  0  0  0  0
   32.2700   27.2400   32.3100 C   0  0  0  0  0  0  0  0  0  0  0  0
   31.6100   27.2500   31.0800 C   0  0  0  0  0  0  0  0  0  0  0  0
   30.2700   26.8700   31.0600 C   0  0  0  0  0  0  0  0  0  0  0  0
   29.5100   26.6900   32.2300 C   0  0  0  0  0  0  0  0  0  0  0  0
   28.1400   26.4100   32.2000 C   0  0  0  0  0  0  0  0  0  0  0  0
   27.4300   26.1300   31.0500 N   0  0  0  0  0  0  0  0  0  0  0  0
   23.8914   26.2132   34.7795 C   0  0  0  0  0  0  0  0  0  0  0  0
   23.2543   26.0321   35.9767 N   0  0  0  0  0  0  0  0  0  0  0  0
   21.8988   26.0084   36.0338 C   0  0  0  0  0  0  0  0  0  0  0  0
   21.0512   25.8327   37.2596 C   0  0  0  0  0  0  0  0  0  0  0  0
   19.6910   25.8847   36.7159 N   0  0  0  0  0  0  0  0  0  0  0  0
   19.7537   26.1239   35.3141 C   0  0  0  0  0  0  0  0  0  0  0  0
   18.7484   26.2806   34.5722 O   0  0  0  0  0  0  0  0  0  0  0  0
   21.1347   26.1819   34.9045 C   0  0  0  0  0  0  0  0  0  0  0  0
   21.7242   26.3952   33.6641 C   0  0  0  0  0  0  0  0  0  0  0  0
   20.9725   26.5913   32.5528 F   0  0  0  0  0  0  0  0  0  0  0  0
   23.1258   26.4162   33.6001 C   0  0  0  0  0  0  0  0  0  0  0  0
   18.5634   25.9897   37.4675 O   0  0  0  0  0  0  0  0  0  0  0  0
   18.0570   24.6870   37.6116 C   0  0  0  0  0  0  0  0  0  0  0  0
  1  2  1  0
  2  3  2  0
  2  4  1  0
  4  5  2  0
  5  6  1  0
  6  7  2  0
  7  8  1  0
  8  9  2  0
  9 10  1  0
 10 11  2  0
 11 12  1  0
 12 13  2  0
 13 14  1  0
  1 15  1  0
 15 16  2  0
 16 17  1  0
 17 18  1  0
 18 19  1  0
 19 20  1  0
 20 21  2  0
 20 22  1  0
 22 23  1  0
 23 24  1  0
 23 25  2  0
 19 26  1  0
 26 27  1  0
 13  4  1  0
 25 15  1  0
 12  7  1  0
 22 17  2  0
M  END
>  <AAScore>  (1) 
3015.5019148817764

>  <RootName>  (1) 
./4ZLY/04_DeltaGEst/trajectory_03/rank_00/lead_0304

$$$$
