confid_2
     RDKit          3D

 27 30  0  0  0  0  0  0  0  0999 V2000
   25.3300   26.2600   34.7600 N   0  0  0  0  0  0  0  0  0  0  0  0
   26.1200   25.9200   33.6900 C   0  0  0  0  0  0  0  0  0  0  0  0
   25.6300   25.1100   32.9400 O   0  0  0  0  0  0  0  0  0  0  0  0
   27.5200   26.3800   33.4600 C   0  0  0  0  0  0  0  0  0  0  0  0
   28.1600   26.6300   34.6100 N   0  0  0  0  0  0  0  0  0  0  0  0
   29.4800   26.8500   34.5700 N   0  0  0  0  0  0  0  0  0  0  0  0
   30.1900   26.7800   33.4400 C   0  0  0  0  0  0  0  0  0  0  0  0
   31.5600   27.0500   33.5000 C   0  0  0  0  0  0  0  0  0  0  0  0
   32.2700   27.2400   32.3100 C   0  0  0  0  0  0  0  0  0  0  0  0
   31.6100   27.2500   31.0800 C   0  0  0  0  0  0  0  0  0  0  0  0
   30.2700   26.8700   31.0600 C   0  0  0  0  0  0  0  0  0  0  0  0
   29.5100   26.6900   32.2300 C   0  0  0  0  0  0  0  0  0  0  0  0
   28.1400   26.4100   32.2000 C   0  0  0  0  0  0  0  0  0  0  0  0
   27.4300   26.1300   31.0500 N   0  0  0  0  0  0  0  0  0  0  0  0
   24.1649   25.5349   35.2042 C   0  0  0  0  0  0  0  0  0  0  0  0
   24.0244   24.2151   34.8999 N   0  0  0  0  0  0  0  0  0  0  0  0
   22.9794   23.4734   35.3464 C   0  0  0  0  0  0  0  0  0  0  0  0
   22.0005   24.0523   36.1611 C   0  0  0  0  0  0  0  0  0  0  0  0
   20.8840   23.2000   36.7130 C   0  0  0  0  0  0  0  0  0  0  0  0
   19.7378   24.0254   37.1425 N   0  0  0  0  0  0  0  0  0  0  0  0
   20.1862   25.0544   38.0972 C   0  0  0  0  0  0  0  0  0  0  0  0
   21.0740   26.0727   37.3782 C   0  0  0  0  0  0  0  0  0  0  0  0
   22.1320   25.4049   36.5320 C   0  0  0  0  0  0  0  0  0  0  0  0
   23.2028   26.1609   36.0213 C   0  0  0  0  0  0  0  0  0  0  0  0
   23.2997   27.5209   36.3315 O   0  0  0  0  0  0  0  0  0  0  0  0
   23.0405   28.5296   35.3622 C   0  0  0  0  0  0  0  0  0  0  0  0
   18.7118   23.1733   37.7628 C   0  0  0  0  0  0  0  0  0  0  0  0
  1  2  1  0
  2  3  2  0
  2  4  1  0
  4  5  2  0
  5  6  1  0
  6  7  2  0
  7  8  1  0
  8  9  2  0
  9 10  1  0
 10 11  2  0
 11 12  1  0
 12 13  2  0
 13 14  1  0
  1 15  1  0
 15 16  2  0
 16 17  1  0
 17 18  2  0
 18 19  1  0
 19 20  1  0
 20 21  1  0
 21 22  1  0
 22 23  1  0
 23 24  2  0
 24 25  1  0
 25 26  1  0
 20 27  1  0
 13  4  1  0
 24 15  1  0
 12  7  1  0
 23 18  1  0
M  END
>  <AAScore>  (1) 
6690.544778044702

>  <RootName>  (1) 
./4ZLY/04_DeltaGEst/trajectory_03/rank_00/lead_0216

$$$$
