confid_5
     RDKit          3D

 28 31  0  0  0  0  0  0  0  0999 V2000
   24.4800   26.1000   36.1300 N   0  0  0  0  0  0  0  0  0  0  0  0
   25.2500   26.2500   34.9900 C   0  0  0  0  0  0  0  0  0  0  0  0
   24.7400   25.7600   33.9900 O   0  0  0  0  0  0  0  0  0  0  0  0
   26.5900   26.8900   34.9600 C   0  0  0  0  0  0  0  0  0  0  0  0
   27.0600   27.2400   36.1600 N   0  0  0  0  0  0  0  0  0  0  0  0
   28.3000   27.7100   36.2400 N   0  0  0  0  0  0  0  0  0  0  0  0
   29.0500   27.9600   35.1500 C   0  0  0  0  0  0  0  0  0  0  0  0
   30.3400   28.4900   35.2600 C   0  0  0  0  0  0  0  0  0  0  0  0
   31.1100   28.8200   34.1400 C   0  0  0  0  0  0  0  0  0  0  0  0
   30.5200   28.6700   32.8800 C   0  0  0  0  0  0  0  0  0  0  0  0
   29.2900   28.0200   32.7700 C   0  0  0  0  0  0  0  0  0  0  0  0
   28.5200   27.7100   33.8900 C   0  0  0  0  0  0  0  0  0  0  0  0
   27.2700   27.0800   33.7600 C   0  0  0  0  0  0  0  0  0  0  0  0
   26.7500   26.8800   32.4900 N   0  0  0  0  0  0  0  0  0  0  0  0
   23.4897   25.0731   36.3395 C   0  0  0  0  0  0  0  0  0  0  0  0
   23.3985   24.0111   35.4967 N   0  0  0  0  0  0  0  0  0  0  0  0
   22.4971   23.0091   35.6730 C   0  0  0  0  0  0  0  0  0  0  0  0
   22.4555   21.8954   34.6677 C   0  0  0  0  0  0  0  0  0  0  0  0
   21.2049   21.9222   33.9117 N   0  0  0  0  0  0  0  0  0  0  0  0
   19.9339   21.5755   34.4869 C   0  0  0  0  0  0  0  0  0  0  0  0
   19.0938   20.9649   33.7732 O   0  0  0  0  0  0  0  0  0  0  0  0
   19.5017   22.0395   35.8572 C   0  0  0  0  0  0  0  0  0  0  0  0
   20.5895   21.9314   36.9292 C   0  0  0  0  0  0  0  0  0  0  0  0
   21.6128   23.0399   36.7717 C   0  0  0  0  0  0  0  0  0  0  0  0
   21.6719   24.1476   37.6559 C   0  0  0  0  0  0  0  0  0  0  0  0
   22.6288   25.1502   37.4375 C   0  0  0  0  0  0  0  0  0  0  0  0
   20.7380   24.2823   38.8308 C   0  0  0  0  0  0  0  0  0  0  0  0
   21.2851   22.0230   32.5658 F   0  0  0  0  0  0  0  0  0  0  0  0
  1  2  1  0
  2  3  2  0
  2  4  1  0
  4  5  2  0
  5  6  1  0
  6  7  2  0
  7  8  1  0
  8  9  2  0
  9 10  1  0
 10 11  2  0
 11 12  1  0
 12 13  2  0
 13 14  1  0
  1 15  1  0
 15 16  2  0
 16 17  1  0
 17 18  1  0
 18 19  1  0
 19 20  1  0
 20 21  2  0
 20 22  1  0
 22 23  1  0
 23 24  1  0
 24 25  1  0
 25 26  2  0
 25 27  1  0
 19 28  1  0
 13  4  1  0
 26 15  1  0
 12  7  1  0
 24 17  2  0
M  END
>  <AAScore>  (1) 
435.1595428060132

>  <RootName>  (1) 
./4ZLY/04_DeltaGEst/trajectory_00/rank_01/lead_0225

$$$$
