confid_12
     RDKit          3D

 28 32  0  0  0  0  0  0  0  0999 V2000
   24.5700   26.8800   35.5900 N   0  0  0  0  0  0  0  0  0  0  0  0
   25.5000   26.4000   34.6900 C   0  0  0  0  0  0  0  0  0  0  0  0
   25.1700   25.5200   33.9100 O   0  0  0  0  0  0  0  0  0  0  0  0
   26.8400   27.0200   34.7400 C   0  0  0  0  0  0  0  0  0  0  0  0
   27.3800   27.2800   35.9400 N   0  0  0  0  0  0  0  0  0  0  0  0
   28.6200   27.7400   36.0300 N   0  0  0  0  0  0  0  0  0  0  0  0
   29.3800   28.0000   34.9600 C   0  0  0  0  0  0  0  0  0  0  0  0
   30.6700   28.5000   35.1300 C   0  0  0  0  0  0  0  0  0  0  0  0
   31.5400   28.6100   34.0300 C   0  0  0  0  0  0  0  0  0  0  0  0
   31.0900   28.2200   32.7700 C   0  0  0  0  0  0  0  0  0  0  0  0
   29.8000   27.7000   32.6000 C   0  0  0  0  0  0  0  0  0  0  0  0
   28.9600   27.5500   33.7100 C   0  0  0  0  0  0  0  0  0  0  0  0
   27.6600   27.0300   33.5900 C   0  0  0  0  0  0  0  0  0  0  0  0
   27.1600   26.7400   32.3400 N   0  0  0  0  0  0  0  0  0  0  0  0
   23.3039   26.2609   35.8768 C   0  0  0  0  0  0  0  0  0  0  0  0
   22.9956   25.0212   35.3851 N   0  0  0  0  0  0  0  0  0  0  0  0
   21.8033   24.4250   35.6623 C   0  0  0  0  0  0  0  0  0  0  0  0
   20.8783   25.1106   36.4450 C   0  0  0  0  0  0  0  0  0  0  0  0
   19.5418   24.6568   36.9205 C   0  0  2  0  0  0  0  0  0  0  0  0
   18.4557   24.7522   35.8280 C   0  0  0  0  0  0  0  0  0  0  0  0
   18.7065   23.7941   34.7277 N   0  0  0  0  0  0  0  0  0  0  0  0
   19.3889   24.4117   33.5767 C   0  0  0  0  0  0  0  0  0  0  0  0
   18.1801   24.2790   32.6750 C   0  0  0  0  0  0  0  0  0  0  0  0
   17.5149   23.6401   33.8765 C   0  0  0  0  0  0  0  0  0  0  0  0
   19.2444   25.6532   38.0729 C   0  0  0  0  0  0  0  0  0  0  0  0
   20.1972   26.8511   37.8924 C   0  0  0  0  0  0  0  0  0  0  0  0
   21.2206   26.3246   36.9668 C   0  0  0  0  0  0  0  0  0  0  0  0
   22.4157   26.9034   36.6900 N   0  0  0  0  0  0  0  0  0  0  0  0
  1  2  1  0
  2  3  2  0
  2  4  1  0
  4  5  2  0
  5  6  1  0
  6  7  2  0
  7  8  1  0
  8  9  2  0
  9 10  1  0
 10 11  2  0
 11 12  1  0
 12 13  2  0
 13 14  1  0
  1 15  1  0
 15 16  2  0
 16 17  1  0
 17 18  2  0
 18 19  1  0
 19 20  1  6
 20 21  1  0
 21 22  1  0
 22 23  1  0
 23 24  1  0
 19 25  1  0
 25 26  1  0
 26 27  1  0
 27 28  2  0
 13  4  1  0
 28 15  1  0
 12  7  1  0
 27 18  1  0
 24 21  1  0
M  END
>  <AAScore>  (1) 
38106.49374564632

>  <RootName>  (1) 
./4ZLY/04_DeltaGEst/trajectory_05/rank_00/lead_0286

$$$$
