confid_5
     RDKit          3D

 30 34  0  0  0  0  0  0  0  0999 V2000
   25.3300   26.2600   34.7600 N   0  0  0  0  0  0  0  0  0  0  0  0
   26.1200   25.9200   33.6900 C   0  0  0  0  0  0  0  0  0  0  0  0
   25.6300   25.1100   32.9400 O   0  0  0  0  0  0  0  0  0  0  0  0
   27.5200   26.3800   33.4600 C   0  0  0  0  0  0  0  0  0  0  0  0
   28.1600   26.6300   34.6100 N   0  0  0  0  0  0  0  0  0  0  0  0
   29.4800   26.8500   34.5700 N   0  0  0  0  0  0  0  0  0  0  0  0
   30.1900   26.7800   33.4400 C   0  0  0  0  0  0  0  0  0  0  0  0
   31.5600   27.0500   33.5000 C   0  0  0  0  0  0  0  0  0  0  0  0
   32.2700   27.2400   32.3100 C   0  0  0  0  0  0  0  0  0  0  0  0
   31.6100   27.2500   31.0800 C   0  0  0  0  0  0  0  0  0  0  0  0
   30.2700   26.8700   31.0600 C   0  0  0  0  0  0  0  0  0  0  0  0
   29.5100   26.6900   32.2300 C   0  0  0  0  0  0  0  0  0  0  0  0
   28.1400   26.4100   32.2000 C   0  0  0  0  0  0  0  0  0  0  0  0
   27.4300   26.1300   31.0500 N   0  0  0  0  0  0  0  0  0  0  0  0
   24.1503   25.5496   35.1924 C   0  0  0  0  0  0  0  0  0  0  0  0
   24.0954   24.2616   34.9667 N   0  0  0  0  0  0  0  0  0  0  0  0
   23.1639   23.1891   35.1901 C   0  0  0  0  0  0  0  0  0  0  0  0
   21.8623   23.3362   35.3907 C   0  0  0  0  0  0  0  0  0  0  0  0
   20.6304   22.5235   35.1068 C   0  0  0  0  0  0  0  0  0  0  0  0
   19.7383   23.5622   35.3504 O   0  0  0  0  0  0  0  0  0  0  0  0
   20.8193   24.3434   35.7423 C   0  0  2  0  0  0  0  0  0  0  0  0
   20.9830   25.6268   34.9372 C   0  0  0  0  0  0  0  0  0  0  0  0
   21.8758   26.5146   35.7395 C   0  0  0  0  0  0  0  0  0  0  0  0
   23.1732   26.3303   35.9923 C   0  0  0  0  0  0  0  0  0  0  0  0
   23.6273   27.2805   36.9494 N   0  0  0  0  0  0  0  0  0  0  0  0
   22.6159   28.0009   37.3065 C   0  0  0  0  0  0  0  0  0  0  0  0
   22.7262   29.0764   38.2577 N   0  0  0  0  0  0  0  0  0  0  0  0
   21.5430   29.8712   38.5976 C   0  0  0  0  0  0  0  0  0  0  0  0
   24.0194   29.3588   38.8868 C   0  0  0  0  0  0  0  0  0  0  0  0
   21.3564   27.6108   36.6085 C   0  0  0  0  0  0  0  0  0  0  0  0
  1  2  1  0
  2  3  2  0
  2  4  1  0
  4  5  2  0
  5  6  1  0
  6  7  2  0
  7  8  1  0
  8  9  2  0
  9 10  1  0
 10 11  2  0
 11 12  1  0
 12 13  2  0
 13 14  1  0
  1 15  1  0
 15 16  2  0
 16 17  1  0
 17 18  2  0
 18 19  1  0
 19 20  1  0
 20 21  1  0
 21 22  1  6
 22 23  1  0
 23 24  2  0
 24 25  1  0
 25 26  2  0
 26 27  1  0
 27 28  1  0
 27 29  1  0
 26 30  1  0
 13  4  1  0
 24 15  1  0
 12  7  1  0
 21 18  1  0
 30 23  1  0
M  END
>  <AAScore>  (1) 
4029.123638850632

>  <RootName>  (1) 
./4ZLY/04_DeltaGEst/trajectory_03/rank_00/lead_0337

$$$$
