confid_0
     RDKit          3D

 29 32  0  0  0  0  0  0  0  0999 V2000
   24.5500   26.3900   36.2500 N   0  0  0  0  0  0  0  0  0  0  0  0
   25.6000   26.1300   35.4000 C   0  0  0  0  0  0  0  0  0  0  0  0
   25.4300   25.4300   34.4200 O   0  0  0  0  0  0  0  0  0  0  0  0
   26.9800   26.6300   35.7100 C   0  0  0  0  0  0  0  0  0  0  0  0
   27.3200   26.8200   36.9800 N   0  0  0  0  0  0  0  0  0  0  0  0
   28.4700   27.4000   37.3100 N   0  0  0  0  0  0  0  0  0  0  0  0
   29.4000   27.6300   36.3700 C   0  0  0  0  0  0  0  0  0  0  0  0
   30.6600   28.0500   36.8000 C   0  0  0  0  0  0  0  0  0  0  0  0
   31.5700   28.3600   35.7800 C   0  0  0  0  0  0  0  0  0  0  0  0
   31.3700   28.1000   34.4300 C   0  0  0  0  0  0  0  0  0  0  0  0
   30.1200   27.5900   34.0500 C   0  0  0  0  0  0  0  0  0  0  0  0
   29.1500   27.3400   35.0300 C   0  0  0  0  0  0  0  0  0  0  0  0
   27.8800   26.8900   34.6600 C   0  0  0  0  0  0  0  0  0  0  0  0
   27.4800   26.6100   33.3700 N   0  0  0  0  0  0  0  0  0  0  0  0
   30.9535   28.3273   38.1775 N   0  0  0  0  0  0  0  0  0  0  0  0
   31.1068   27.2502   39.1813 C   0  0  0  0  0  0  0  0  0  0  0  0
   31.3006   27.9268   40.5574 C   0  0  0  0  0  0  0  0  0  0  0  0
   31.3962   29.3242   40.1192 C   0  0  0  0  0  0  0  0  0  0  0  0
   32.4573   30.2286   40.0180 C   0  0  0  0  0  0  0  0  0  0  0  0
   32.0660   30.5261   38.6044 C   0  0  0  0  0  0  0  0  0  0  0  0
   30.9232   29.6652   38.7786 C   0  0  1  0  0  0  0  0  0  0  0  0
   29.5234   30.3262   38.8024 C   0  0  0  0  0  0  0  0  0  0  0  0
   29.1713   31.0264   37.4818 C   0  0  0  0  0  0  0  0  0  0  0  0
   27.4417   31.4636   37.4345 S   0  0  0  0  0  6  0  0  0  0  0  0
   27.1122   32.3666   38.5896 O   0  0  0  0  0  0  0  0  0  0  0  0
   26.5998   30.2210   37.5141 O   0  0  0  0  0  0  0  0  0  0  0  0
   27.0959   32.3073   35.9080 C   0  0  0  0  0  0  0  0  0  0  0  0
   33.7257   30.4296   40.7861 C   0  0  0  0  0  0  0  0  0  0  0  0
   34.8256   29.5113   40.2663 C   0  0  0  0  0  0  0  0  0  0  0  0
  1  2  1  0
  2  3  2  0
  2  4  1  0
  4  5  2  0
  5  6  1  0
  6  7  2  0
  7  8  1  0
  8  9  2  0
  9 10  1  0
 10 11  2  0
 11 12  1  0
 12 13  2  0
 13 14  1  0
  8 15  1  0
 15 16  1  0
 16 17  1  0
 17 18  1  0
 18 19  2  0
 19 20  1  0
 20 21  1  0
 21 22  1  1
 22 23  1  0
 23 24  1  0
 24 25  2  0
 24 26  2  0
 24 27  1  0
 19 28  1  0
 28 29  1  0
 13  4  1  0
 21 15  1  0
 12  7  1  0
 21 18  1  0
M  END
>  <AAScore>  (1) 
81.71972927768391

>  <RootName>  (1) 
./4ZLY/04_DeltaGEst/trajectory_01/rank_01/lead_0321

$$$$
