confid_8
     RDKit          3D

 28 31  0  0  0  0  0  0  0  0999 V2000
   24.5700   26.8800   35.5900 N   0  0  0  0  0  0  0  0  0  0  0  0
   25.5000   26.4000   34.6900 C   0  0  0  0  0  0  0  0  0  0  0  0
   25.1700   25.5200   33.9100 O   0  0  0  0  0  0  0  0  0  0  0  0
   26.8400   27.0200   34.7400 C   0  0  0  0  0  0  0  0  0  0  0  0
   27.3800   27.2800   35.9400 N   0  0  0  0  0  0  0  0  0  0  0  0
   28.6200   27.7400   36.0300 N   0  0  0  0  0  0  0  0  0  0  0  0
   29.3800   28.0000   34.9600 C   0  0  0  0  0  0  0  0  0  0  0  0
   30.6700   28.5000   35.1300 C   0  0  0  0  0  0  0  0  0  0  0  0
   31.5400   28.6100   34.0300 C   0  0  0  0  0  0  0  0  0  0  0  0
   31.0900   28.2200   32.7700 C   0  0  0  0  0  0  0  0  0  0  0  0
   29.8000   27.7000   32.6000 C   0  0  0  0  0  0  0  0  0  0  0  0
   28.9600   27.5500   33.7100 C   0  0  0  0  0  0  0  0  0  0  0  0
   27.6600   27.0300   33.5900 C   0  0  0  0  0  0  0  0  0  0  0  0
   27.1600   26.7400   32.3400 N   0  0  0  0  0  0  0  0  0  0  0  0
   23.1920   26.4578   35.6316 C   0  0  0  0  0  0  0  0  0  0  0  0
   22.5872   25.8207   34.6048 N   0  0  0  0  0  0  0  0  0  0  0  0
   21.3064   25.6971   34.9957 C   0  0  0  0  0  0  0  0  0  0  0  0
   21.1463   26.2761   36.2350 C   0  0  0  0  0  0  0  0  0  0  0  0
   19.8547   26.2853   37.0020 C   0  0  0  0  0  0  0  0  0  0  0  0
   19.7466   25.0298   37.7868 N   0  0  0  0  0  0  0  0  0  0  0  0
   20.1375   25.2323   39.2033 C   0  0  0  0  0  0  0  0  0  0  0  0
   21.6332   25.5564   39.3476 C   0  0  0  0  0  0  0  0  0  0  0  0
   21.9007   27.0146   39.0895 C   0  0  0  0  0  0  0  0  0  0  0  0
   21.5156   27.8443   39.9001 O   0  0  0  0  0  0  0  0  0  0  0  0
   22.6807   27.4732   37.8868 C   0  0  0  0  0  0  0  0  0  0  0  0
   22.3502   26.7263   36.6614 N   0  0  0  0  0  0  0  0  0  0  0  0
   18.3884   24.4442   37.6913 C   0  0  0  0  0  0  0  0  0  0  0  0
   18.4159   22.9383   37.9559 C   0  0  0  0  0  0  0  0  0  0  0  0
  1  2  1  0
  2  3  2  0
  2  4  1  0
  4  5  2  0
  5  6  1  0
  6  7  2  0
  7  8  1  0
  8  9  2  0
  9 10  1  0
 10 11  2  0
 11 12  1  0
 12 13  2  0
 13 14  1  0
  1 15  1  0
 15 16  2  0
 16 17  1  0
 17 18  2  0
 18 19  1  0
 19 20  1  0
 20 21  1  0
 21 22  1  0
 22 23  1  0
 23 24  2  0
 23 25  1  0
 25 26  1  0
 20 27  1  0
 27 28  1  0
 13  4  1  0
 26 15  1  0
 12  7  1  0
 26 18  1  0
M  END
>  <AAScore>  (1) 
239.2045599136731

>  <RootName>  (1) 
./4ZLY/04_DeltaGEst/trajectory_05/rank_00/lead_0330

$$$$
