confid_10
     RDKit          3D

 27 30  0  0  0  0  0  0  0  0999 V2000
   24.5500   26.3900   36.2500 N   0  0  0  0  0  0  0  0  0  0  0  0
   25.6000   26.1300   35.4000 C   0  0  0  0  0  0  0  0  0  0  0  0
   25.4300   25.4300   34.4200 O   0  0  0  0  0  0  0  0  0  0  0  0
   26.9800   26.6300   35.7100 C   0  0  0  0  0  0  0  0  0  0  0  0
   27.3200   26.8200   36.9800 N   0  0  0  0  0  0  0  0  0  0  0  0
   28.4700   27.4000   37.3100 N   0  0  0  0  0  0  0  0  0  0  0  0
   29.4000   27.6300   36.3700 C   0  0  0  0  0  0  0  0  0  0  0  0
   30.6600   28.0500   36.8000 C   0  0  0  0  0  0  0  0  0  0  0  0
   31.5700   28.3600   35.7800 C   0  0  0  0  0  0  0  0  0  0  0  0
   31.3700   28.1000   34.4300 C   0  0  0  0  0  0  0  0  0  0  0  0
   30.1200   27.5900   34.0500 C   0  0  0  0  0  0  0  0  0  0  0  0
   29.1500   27.3400   35.0300 C   0  0  0  0  0  0  0  0  0  0  0  0
   27.8800   26.8900   34.6600 C   0  0  0  0  0  0  0  0  0  0  0  0
   27.4800   26.6100   33.3700 N   0  0  0  0  0  0  0  0  0  0  0  0
   30.9631   28.3089   38.1816 N   0  0  0  0  0  0  0  0  0  0  0  0
   32.1905   27.7651   38.7670 C   0  0  0  0  0  0  0  0  0  0  0  0
   31.9483   27.3982   40.2310 C   0  0  0  0  0  0  0  0  0  0  0  0
   31.2892   28.5071   40.9346 N   0  0  0  0  0  0  0  0  0  0  0  0
   31.6626   28.8064   42.2949 C   0  0  0  0  0  0  0  0  0  0  0  0
   30.6925   29.0811   43.2757 C   0  0  0  0  0  0  0  0  0  0  0  0
   31.0962   29.3644   44.5833 C   0  0  0  0  0  0  0  0  0  0  0  0
   29.8991   29.7063   45.8191 Cl  0  0  0  0  0  0  0  0  0  0  0  0
   32.4546   29.3681   44.9054 C   0  0  0  0  0  0  0  0  0  0  0  0
   33.3917   29.0830   43.9116 C   0  0  0  0  0  0  0  0  0  0  0  0
   32.9800   28.8107   42.6450 N   0  0  0  0  0  0  0  0  0  0  0  0
   30.0738   29.0792   40.3366 C   0  0  0  0  0  0  0  0  0  0  0  0
   30.3188   29.4319   38.8686 C   0  0  0  0  0  0  0  0  0  0  0  0
  1  2  1  0
  2  3  2  0
  2  4  1  0
  4  5  2  0
  5  6  1  0
  6  7  2  0
  7  8  1  0
  8  9  2  0
  9 10  1  0
 10 11  2  0
 11 12  1  0
 12 13  2  0
 13 14  1  0
  8 15  1  0
 15 16  1  0
 16 17  1  0
 17 18  1  0
 18 19  1  0
 19 20  2  0
 20 21  1  0
 21 22  1  0
 21 23  2  0
 23 24  1  0
 24 25  2  0
 18 26  1  0
 26 27  1  0
 13  4  1  0
 27 15  1  0
 12  7  1  0
 25 19  1  0
M  END
>  <AAScore>  (1) 
446.2037831572243

>  <RootName>  (1) 
./4ZLY/04_DeltaGEst/trajectory_01/rank_01/lead_0482

$$$$
