confid_2
     RDKit          3D

 28 31  0  0  0  0  0  0  0  0999 V2000
   24.6900   26.1200   35.5300 N   0  0  0  0  0  0  0  0  0  0  0  0
   25.6600   25.6700   34.6600 C   0  0  0  0  0  0  0  0  0  0  0  0
   25.2400   25.0100   33.7200 O   0  0  0  0  0  0  0  0  0  0  0  0
   27.0300   26.2200   34.8800 C   0  0  0  0  0  0  0  0  0  0  0  0
   27.3500   26.7300   36.0700 N   0  0  0  0  0  0  0  0  0  0  0  0
   28.5700   27.1800   36.3300 N   0  0  0  0  0  0  0  0  0  0  0  0
   29.5300   27.1100   35.3900 C   0  0  0  0  0  0  0  0  0  0  0  0
   30.8300   27.5700   35.6500 C   0  0  0  0  0  0  0  0  0  0  0  0
   31.8500   27.5400   34.6900 C   0  0  0  0  0  0  0  0  0  0  0  0
   31.5100   27.1200   33.4000 C   0  0  0  0  0  0  0  0  0  0  0  0
   30.2200   26.6300   33.1100 C   0  0  0  0  0  0  0  0  0  0  0  0
   29.2400   26.6600   34.1000 C   0  0  0  0  0  0  0  0  0  0  0  0
   27.9300   26.2600   33.8100 C   0  0  0  0  0  0  0  0  0  0  0  0
   27.5200   25.7100   32.6100 N   0  0  0  0  0  0  0  0  0  0  0  0
   23.2654   26.1326   35.2997 C   0  0  0  0  0  0  0  0  0  0  0  0
   22.4349   26.0123   36.3663 N   0  0  0  0  0  0  0  0  0  0  0  0
   21.0860   26.1007   36.2555 C   0  0  0  0  0  0  0  0  0  0  0  0
   20.4716   26.3359   35.0122 C   0  0  0  0  0  0  0  0  0  0  0  0
   18.9759   26.6336   35.0779 C   0  0  0  0  0  0  0  0  0  0  0  0
   18.2577   26.5347   33.8063 N   0  0  0  0  0  0  0  0  0  0  0  0
   17.3620   27.6149   33.3903 C   0  0  0  0  0  0  0  0  0  0  0  0
   18.1515   25.2578   33.1681 C   0  0  0  0  0  0  0  0  0  0  0  0
   17.0820   24.5969   33.2492 O   0  0  0  0  0  0  0  0  0  0  0  0
   19.3341   24.7003   32.4522 C   0  0  0  0  0  0  0  0  0  0  0  0
   20.0718   25.8327   31.8020 C   0  0  0  0  0  0  0  0  0  0  0  0
   20.8517   26.6874   32.4802 C   0  0  0  0  0  0  0  0  0  0  0  0
   21.3152   26.4609   33.8695 C   0  0  0  0  0  0  0  0  0  0  0  0
   22.7090   26.3771   34.0356 C   0  0  0  0  0  0  0  0  0  0  0  0
  1  2  1  0
  2  3  2  0
  2  4  1  0
  4  5  2  0
  5  6  1  0
  6  7  2  0
  7  8  1  0
  8  9  2  0
  9 10  1  0
 10 11  2  0
 11 12  1  0
 12 13  2  0
 13 14  1  0
  1 15  1  0
 15 16  2  0
 16 17  1  0
 17 18  2  0
 18 19  1  0
 19 20  1  0
 20 21  1  0
 20 22  1  0
 22 23  2  0
 22 24  1  0
 24 25  1  0
 25 26  2  0
 26 27  1  0
 27 28  2  0
 13  4  1  0
 28 15  1  0
 12  7  1  0
 27 18  1  0
M  END
>  <AAScore>  (1) 
149.62762336472352

>  <RootName>  (1) 
./4ZLY/04_DeltaGEst/trajectory_02/rank_00/lead_0119

$$$$
