confid_18
     RDKit          3D

 30 34  0  0  0  0  0  0  0  0999 V2000
   24.2000   26.2400   35.6900 N   0  0  0  0  0  0  0  0  0  0  0  0
   24.8500   26.2800   34.4800 C   0  0  0  0  0  0  0  0  0  0  0  0
   24.3100   25.7400   33.5400 O   0  0  0  0  0  0  0  0  0  0  0  0
   26.1800   26.9700   34.4700 C   0  0  0  0  0  0  0  0  0  0  0  0
   26.6500   27.6000   35.5500 N   0  0  0  0  0  0  0  0  0  0  0  0
   27.7900   28.2700   35.6200 N   0  0  0  0  0  0  0  0  0  0  0  0
   28.5400   28.3000   34.5100 C   0  0  0  0  0  0  0  0  0  0  0  0
   29.7700   28.9400   34.5600 C   0  0  0  0  0  0  0  0  0  0  0  0
   30.7000   28.8900   33.5000 C   0  0  0  0  0  0  0  0  0  0  0  0
   30.3700   28.1400   32.3700 C   0  0  0  0  0  0  0  0  0  0  0  0
   29.1200   27.5200   32.2800 C   0  0  0  0  0  0  0  0  0  0  0  0
   28.2100   27.6100   33.3300 C   0  0  0  0  0  0  0  0  0  0  0  0
   26.9700   26.9700   33.3100 C   0  0  0  0  0  0  0  0  0  0  0  0
   26.5300   26.2400   32.2200 N   0  0  0  0  0  0  0  0  0  0  0  0
   30.1336   29.6839   35.7362 N   0  0  0  0  0  0  0  0  0  0  0  0
   31.0479   29.0494   36.6914 C   0  0  0  0  0  0  0  0  0  0  0  0
   31.2369   29.9148   37.9415 C   0  0  0  0  0  0  0  0  0  0  0  0
   31.5776   31.3873   37.6085 C   0  0  0  0  0  0  0  0  0  0  0  0
   31.0032   31.8894   36.3265 N   0  0  0  0  0  0  0  0  0  0  0  0
   29.8073   31.1167   35.9098 C   0  0  0  0  0  0  0  0  0  0  0  0
   28.6085   31.3267   36.8482 C   0  0  0  0  0  0  0  0  0  0  0  0
   27.8077   31.9384   35.7095 C   0  0  0  0  0  0  0  0  0  0  0  0
   28.9988   31.7880   34.7769 C   0  0  0  0  0  0  0  0  0  0  0  0
   32.0328   31.9316   35.2567 C   0  0  0  0  0  0  0  0  0  0  0  0
   32.8380   33.2519   35.3221 C   0  0  0  0  0  0  0  0  0  0  0  0
   31.9683   34.4866   35.0075 C   0  0  0  0  0  0  0  0  0  0  0  0
   31.7386   34.6430   33.4962 C   0  0  0  0  0  0  0  0  0  0  0  0
   32.9682   34.7003   32.7992 O   0  0  0  0  0  0  0  0  0  0  0  0
   33.6512   33.4679   32.9262 C   0  0  0  0  0  0  0  0  0  0  0  0
   34.0608   33.2192   34.3841 C   0  0  0  0  0  0  0  0  0  0  0  0
  1  2  1  0
  2  3  2  0
  2  4  1  0
  4  5  2  0
  5  6  1  0
  6  7  2  0
  7  8  1  0
  8  9  2  0
  9 10  1  0
 10 11  2  0
 11 12  1  0
 12 13  2  0
 13 14  1  0
  8 15  1  0
 15 16  1  0
 16 17  1  0
 17 18  1  0
 18 19  1  0
 19 20  1  0
 20 21  1  0
 21 22  1  0
 22 23  1  0
 19 24  1  0
 24 25  1  0
 25 26  1  0
 26 27  1  0
 27 28  1  0
 28 29  1  0
 29 30  1  0
 13  4  1  0
 20 15  1  0
 30 25  1  0
 12  7  1  0
 23 20  1  0
M  END
>  <AAScore>  (1) 
-9.499763307834948

>  <RootName>  (1) 
./4ZLY/04_DeltaGEst/trajectory_04/rank_01/lead_0130

$$$$
