confid_4
     RDKit          3D

 27 30  0  0  0  0  0  0  0  0999 V2000
   24.2000   26.2400   35.6900 N   0  0  0  0  0  0  0  0  0  0  0  0
   24.8500   26.2800   34.4800 C   0  0  0  0  0  0  0  0  0  0  0  0
   24.3100   25.7400   33.5400 O   0  0  0  0  0  0  0  0  0  0  0  0
   26.1800   26.9700   34.4700 C   0  0  0  0  0  0  0  0  0  0  0  0
   26.6500   27.6000   35.5500 N   0  0  0  0  0  0  0  0  0  0  0  0
   27.7900   28.2700   35.6200 N   0  0  0  0  0  0  0  0  0  0  0  0
   28.5400   28.3000   34.5100 C   0  0  0  0  0  0  0  0  0  0  0  0
   29.7700   28.9400   34.5600 C   0  0  0  0  0  0  0  0  0  0  0  0
   30.7000   28.8900   33.5000 C   0  0  0  0  0  0  0  0  0  0  0  0
   30.3700   28.1400   32.3700 C   0  0  0  0  0  0  0  0  0  0  0  0
   29.1200   27.5200   32.2800 C   0  0  0  0  0  0  0  0  0  0  0  0
   28.2100   27.6100   33.3300 C   0  0  0  0  0  0  0  0  0  0  0  0
   26.9700   26.9700   33.3100 C   0  0  0  0  0  0  0  0  0  0  0  0
   26.5300   26.2400   32.2200 N   0  0  0  0  0  0  0  0  0  0  0  0
   22.7728   26.1447   35.8476 C   0  0  0  0  0  0  0  0  0  0  0  0
   22.2712   25.5618   36.9699 N   0  0  0  0  0  0  0  0  0  0  0  0
   20.9357   25.4575   37.1963 C   0  0  0  0  0  0  0  0  0  0  0  0
   20.0215   25.9794   36.2723 C   0  0  0  0  0  0  0  0  0  0  0  0
   18.5464   25.8369   36.4959 C   0  0  0  0  0  0  0  0  0  0  0  0
   17.8107   27.0423   35.9190 C   0  0  0  0  0  0  0  0  0  0  0  0
   18.1579   27.2276   34.5010 N   0  0  0  0  0  0  0  0  0  0  0  0
   19.5630   27.1388   34.0552 C   0  0  0  0  0  0  0  0  0  0  0  0
   20.5040   26.6005   35.1085 C   0  0  0  0  0  0  0  0  0  0  0  0
   21.8874   26.6858   34.8995 C   0  0  0  0  0  0  0  0  0  0  0  0
   17.1487   27.6982   33.5773 C   0  0  0  0  0  0  0  0  0  0  0  0
   16.0027   28.0164   33.9981 O   0  0  0  0  0  0  0  0  0  0  0  0
   17.4279   27.8217   32.1085 C   0  0  0  0  0  0  0  0  0  0  0  0
  1  2  1  0
  2  3  2  0
  2  4  1  0
  4  5  2  0
  5  6  1  0
  6  7  2  0
  7  8  1  0
  8  9  2  0
  9 10  1  0
 10 11  2  0
 11 12  1  0
 12 13  2  0
 13 14  1  0
  1 15  1  0
 15 16  2  0
 16 17  1  0
 17 18  2  0
 18 19  1  0
 19 20  1  0
 20 21  1  0
 21 22  1  0
 22 23  1  0
 23 24  2  0
 21 25  1  0
 25 26  2  0
 25 27  1  0
 13  4  1  0
 24 15  1  0
 12  7  1  0
 23 18  1  0
M  END
>  <AAScore>  (1) 
59.487020529861056

>  <RootName>  (1) 
./4ZLY/04_DeltaGEst/trajectory_04/rank_00/lead_0160

$$$$
