confid_18
     RDKit          3D

 28 31  0  0  0  0  0  0  0  0999 V2000
   25.3300   26.2600   34.7600 N   0  0  0  0  0  0  0  0  0  0  0  0
   26.1200   25.9200   33.6900 C   0  0  0  0  0  0  0  0  0  0  0  0
   25.6300   25.1100   32.9400 O   0  0  0  0  0  0  0  0  0  0  0  0
   27.5200   26.3800   33.4600 C   0  0  0  0  0  0  0  0  0  0  0  0
   28.1600   26.6300   34.6100 N   0  0  0  0  0  0  0  0  0  0  0  0
   29.4800   26.8500   34.5700 N   0  0  0  0  0  0  0  0  0  0  0  0
   30.1900   26.7800   33.4400 C   0  0  0  0  0  0  0  0  0  0  0  0
   31.5600   27.0500   33.5000 C   0  0  0  0  0  0  0  0  0  0  0  0
   32.2700   27.2400   32.3100 C   0  0  0  0  0  0  0  0  0  0  0  0
   31.6100   27.2500   31.0800 C   0  0  0  0  0  0  0  0  0  0  0  0
   30.2700   26.8700   31.0600 C   0  0  0  0  0  0  0  0  0  0  0  0
   29.5100   26.6900   32.2300 C   0  0  0  0  0  0  0  0  0  0  0  0
   28.1400   26.4100   32.2000 C   0  0  0  0  0  0  0  0  0  0  0  0
   27.4300   26.1300   31.0500 N   0  0  0  0  0  0  0  0  0  0  0  0
   26.4220   27.0664   30.5517 C   0  0  0  0  0  0  0  0  0  0  0  0
   26.7577   27.4388   29.1108 C   0  0  0  0  0  0  0  0  0  0  0  0
   26.9519   26.2366   28.2870 N   0  0  0  0  0  0  0  0  0  0  0  0
   27.5958   25.0745   28.8544 C   0  0  0  0  0  0  0  0  0  0  0  0
   28.1029   24.1973   28.1035 O   0  0  0  0  0  0  0  0  0  0  0  0
   27.6317   24.8633   30.3413 C   0  0  0  0  0  0  0  0  0  0  0  0
   26.6576   26.2882   26.8760 C   0  0  0  0  0  0  0  0  0  0  0  0
   27.0232   27.4065   26.1082 C   0  0  0  0  0  0  0  0  0  0  0  0
   26.7277   27.4544   24.7430 C   0  0  0  0  0  0  0  0  0  0  0  0
   26.0603   26.3933   24.1212 C   0  0  0  0  0  0  0  0  0  0  0  0
   25.7873   26.4899   22.7486 O   0  0  0  0  0  0  0  0  0  0  0  0
   25.1174   25.4884   21.9900 C   0  0  0  0  0  0  0  0  0  0  0  0
   25.6874   25.2736   24.8885 C   0  0  0  0  0  0  0  0  0  0  0  0
   25.9833   25.2248   26.2539 C   0  0  0  0  0  0  0  0  0  0  0  0
  1  2  1  0
  2  3  2  0
  2  4  1  0
  4  5  2  0
  5  6  1  0
  6  7  2  0
  7  8  1  0
  8  9  2  0
  9 10  1  0
 10 11  2  0
 11 12  1  0
 12 13  2  0
 13 14  1  0
 14 15  1  0
 15 16  1  0
 16 17  1  0
 17 18  1  0
 18 19  2  0
 18 20  1  0
 17 21  1  0
 21 22  2  0
 22 23  1  0
 23 24  2  0
 24 25  1  0
 25 26  1  0
 24 27  1  0
 27 28  2  0
 13  4  1  0
 20 14  1  0
 28 21  1  0
 12  7  1  0
M  END
>  <AAScore>  (1) 
7.419012083731082

>  <RootName>  (1) 
./4ZLY/04_DeltaGEst/trajectory_03/rank_01/lead_0485

$$$$
