confid_0
     RDKit          3D

 29 33  0  0  0  0  0  0  0  0999 V2000
   24.5500   26.3900   36.2500 N   0  0  0  0  0  0  0  0  0  0  0  0
   25.6000   26.1300   35.4000 C   0  0  0  0  0  0  0  0  0  0  0  0
   25.4300   25.4300   34.4200 O   0  0  0  0  0  0  0  0  0  0  0  0
   26.9800   26.6300   35.7100 C   0  0  0  0  0  0  0  0  0  0  0  0
   27.3200   26.8200   36.9800 N   0  0  0  0  0  0  0  0  0  0  0  0
   28.4700   27.4000   37.3100 N   0  0  0  0  0  0  0  0  0  0  0  0
   29.4000   27.6300   36.3700 C   0  0  0  0  0  0  0  0  0  0  0  0
   30.6600   28.0500   36.8000 C   0  0  0  0  0  0  0  0  0  0  0  0
   31.5700   28.3600   35.7800 C   0  0  0  0  0  0  0  0  0  0  0  0
   31.3700   28.1000   34.4300 C   0  0  0  0  0  0  0  0  0  0  0  0
   30.1200   27.5900   34.0500 C   0  0  0  0  0  0  0  0  0  0  0  0
   29.1500   27.3400   35.0300 C   0  0  0  0  0  0  0  0  0  0  0  0
   27.8800   26.8900   34.6600 C   0  0  0  0  0  0  0  0  0  0  0  0
   27.4800   26.6100   33.3700 N   0  0  0  0  0  0  0  0  0  0  0  0
   30.9985   28.2959   38.2258 C   0  0  0  0  0  0  0  0  0  0  0  0
   31.3656   29.6959   38.5593 C   0  0  0  0  0  0  0  0  0  0  0  0
   31.6870   30.0857   39.7739 C   0  0  0  0  0  0  0  0  0  0  0  0
   32.0761   31.2680   40.4745 C   0  0  1  0  0  0  0  0  0  0  0  0
   31.0243   32.3274   40.3919 N   0  0  0  0  0  0  0  0  0  0  0  0
   29.8309   32.0879   41.2267 C   0  0  0  0  0  0  0  0  0  0  0  0
   31.4798   33.7366   40.5371 C   0  0  0  0  0  0  0  0  0  0  0  0
   32.6168   33.9993   41.5048 C   0  0  0  0  0  0  0  0  0  0  0  0
   33.4985   34.3621   40.4662 O   0  0  0  0  0  0  0  0  0  0  0  0
   32.4917   34.1659   39.4986 C   0  0  0  0  0  0  0  0  0  0  0  0
   32.1538   30.5477   41.7429 C   0  0  0  0  0  0  0  0  0  0  0  0
   31.8038   29.4011   41.0762 C   0  0  0  0  0  0  0  0  0  0  0  0
   31.5877   28.0167   41.4280 C   0  0  0  0  0  0  0  0  0  0  0  0
   31.2194   27.0903   40.5367 C   0  0  0  0  0  0  0  0  0  0  0  0
   30.9538   27.2291   39.0712 C   0  0  0  0  0  0  0  0  0  0  0  0
  1  2  1  0
  2  3  2  0
  2  4  1  0
  4  5  2  0
  5  6  1  0
  6  7  2  0
  7  8  1  0
  8  9  2  0
  9 10  1  0
 10 11  2  0
 11 12  1  0
 12 13  2  0
 13 14  1  0
  8 15  1  0
 15 16  1  0
 16 17  2  0
 17 18  1  0
 18 19  1  1
 19 20  1  0
 19 21  1  0
 21 22  1  0
 22 23  1  0
 23 24  1  0
 18 25  1  0
 25 26  2  0
 26 27  1  0
 27 28  2  0
 28 29  1  0
 13  4  1  0
 29 15  2  0
 12  7  1  0
 26 17  1  0
 24 21  1  0
M  END
>  <AAScore>  (1) 
31.72181637898393

>  <RootName>  (1) 
./4ZLY/04_DeltaGEst/trajectory_01/rank_01/lead_0176

$$$$
