confid_2
     RDKit          3D

 29 32  0  0  0  0  0  0  0  0999 V2000
   25.3300   26.2600   34.7600 N   0  0  0  0  0  0  0  0  0  0  0  0
   26.1200   25.9200   33.6900 C   0  0  0  0  0  0  0  0  0  0  0  0
   25.6300   25.1100   32.9400 O   0  0  0  0  0  0  0  0  0  0  0  0
   27.5200   26.3800   33.4600 C   0  0  0  0  0  0  0  0  0  0  0  0
   28.1600   26.6300   34.6100 N   0  0  0  0  0  0  0  0  0  0  0  0
   29.4800   26.8500   34.5700 N   0  0  0  0  0  0  0  0  0  0  0  0
   30.1900   26.7800   33.4400 C   0  0  0  0  0  0  0  0  0  0  0  0
   31.5600   27.0500   33.5000 C   0  0  0  0  0  0  0  0  0  0  0  0
   32.2700   27.2400   32.3100 C   0  0  0  0  0  0  0  0  0  0  0  0
   31.6100   27.2500   31.0800 C   0  0  0  0  0  0  0  0  0  0  0  0
   30.2700   26.8700   31.0600 C   0  0  0  0  0  0  0  0  0  0  0  0
   29.5100   26.6900   32.2300 C   0  0  0  0  0  0  0  0  0  0  0  0
   28.1400   26.4100   32.2000 C   0  0  0  0  0  0  0  0  0  0  0  0
   27.4300   26.1300   31.0500 N   0  0  0  0  0  0  0  0  0  0  0  0
   23.8975   26.1204   34.7939 C   0  0  0  0  0  0  0  0  0  0  0  0
   23.1340   25.8517   33.7114 N   0  0  0  0  0  0  0  0  0  0  0  0
   21.8752   25.8711   34.1996 C   0  0  0  0  0  0  0  0  0  0  0  0
   20.6541   25.6153   33.3726 C   0  0  0  0  0  0  0  0  0  0  0  0
   19.4340   25.6231   34.1997 N   0  0  0  0  0  0  0  0  0  0  0  0
   18.2363   25.0379   33.6451 C   0  0  0  0  0  0  0  0  0  0  0  0
   18.3293   23.9945   32.9409 O   0  0  0  0  0  0  0  0  0  0  0  0
   16.8656   25.6341   33.8849 C   0  0  0  0  0  0  0  0  0  0  0  0
   16.0669   24.7534   34.8518 C   0  0  0  0  0  0  0  0  0  0  0  0
   16.1095   25.8031   32.5621 C   0  0  0  0  0  0  0  0  0  0  0  0
   19.3834   26.4521   35.4184 C   0  0  0  0  0  0  0  0  0  0  0  0
   20.5989   26.1837   36.3130 C   0  0  0  0  0  0  0  0  0  0  0  0
   21.8184   26.1633   35.5113 N   0  0  0  0  0  0  0  0  0  0  0  0
   23.0975   26.2951   35.9087 C   0  0  0  0  0  0  0  0  0  0  0  0
   23.5480   26.6330   37.2977 C   0  0  0  0  0  0  0  0  0  0  0  0
  1  2  1  0
  2  3  2  0
  2  4  1  0
  4  5  2  0
  5  6  1  0
  6  7  2  0
  7  8  1  0
  8  9  2  0
  9 10  1  0
 10 11  2  0
 11 12  1  0
 12 13  2  0
 13 14  1  0
  1 15  1  0
 15 16  1  0
 16 17  2  0
 17 18  1  0
 18 19  1  0
 19 20  1  0
 20 21  2  0
 20 22  1  0
 22 23  1  0
 22 24  1  0
 19 25  1  0
 25 26  1  0
 26 27  1  0
 27 28  1  0
 28 29  1  0
 13  4  1  0
 28 15  2  0
 12  7  1  0
 27 17  1  0
M  END
>  <AAScore>  (1) 
2536.254839750982

>  <RootName>  (1) 
./4ZLY/04_DeltaGEst/trajectory_03/rank_00/lead_0193

$$$$
