confid_16
     RDKit          3D

 29 33  0  0  0  0  0  0  0  0999 V2000
   24.6900   26.1200   35.5300 N   0  0  0  0  0  0  0  0  0  0  0  0
   25.6600   25.6700   34.6600 C   0  0  0  0  0  0  0  0  0  0  0  0
   25.2400   25.0100   33.7200 O   0  0  0  0  0  0  0  0  0  0  0  0
   27.0300   26.2200   34.8800 C   0  0  0  0  0  0  0  0  0  0  0  0
   27.3500   26.7300   36.0700 N   0  0  0  0  0  0  0  0  0  0  0  0
   28.5700   27.1800   36.3300 N   0  0  0  0  0  0  0  0  0  0  0  0
   29.5300   27.1100   35.3900 C   0  0  0  0  0  0  0  0  0  0  0  0
   30.8300   27.5700   35.6500 C   0  0  0  0  0  0  0  0  0  0  0  0
   31.8500   27.5400   34.6900 C   0  0  0  0  0  0  0  0  0  0  0  0
   31.5100   27.1200   33.4000 C   0  0  0  0  0  0  0  0  0  0  0  0
   30.2200   26.6300   33.1100 C   0  0  0  0  0  0  0  0  0  0  0  0
   29.2400   26.6600   34.1000 C   0  0  0  0  0  0  0  0  0  0  0  0
   27.9300   26.2600   33.8100 C   0  0  0  0  0  0  0  0  0  0  0  0
   27.5200   25.7100   32.6100 N   0  0  0  0  0  0  0  0  0  0  0  0
   23.5827   26.9361   35.1165 C   0  0  0  0  0  0  0  0  0  0  0  0
   22.6697   27.2395   35.9911 N   0  0  0  0  0  0  0  0  0  0  0  0
   21.5468   28.0936   35.7519 C   0  0  0  0  0  0  0  0  0  0  0  0
   20.4453   27.6405   35.1615 C   0  0  0  0  0  0  0  0  0  0  0  0
   19.0196   28.0825   35.0198 C   0  0  0  0  0  0  0  0  0  0  0  0
   18.5727   26.8947   34.4518 O   0  0  0  0  0  0  0  0  0  0  0  0
   19.8798   26.4139   34.4908 C   0  0  1  0  0  0  0  0  0  0  0  0
   20.3748   26.1697   33.0530 C   0  0  0  0  0  0  0  0  0  0  0  0
   21.8540   25.7695   32.9612 C   0  0  0  0  0  0  0  0  0  0  0  0
   22.7465   26.9690   32.7328 C   0  0  0  0  0  0  0  0  0  0  0  0
   23.5520   27.5119   33.7546 C   0  0  0  0  0  0  0  0  0  0  0  0
   24.3791   28.6053   33.4643 C   0  0  0  0  0  0  0  0  0  0  0  0
   24.3854   29.1503   32.2194 N   0  0  0  0  0  0  0  0  0  0  0  0
   23.6052   28.6570   31.2237 C   0  0  0  0  0  0  0  0  0  0  0  0
   22.7770   27.5606   31.4599 C   0  0  0  0  0  0  0  0  0  0  0  0
  1  2  1  0
  2  3  2  0
  2  4  1  0
  4  5  2  0
  5  6  1  0
  6  7  2  0
  7  8  1  0
  8  9  2  0
  9 10  1  0
 10 11  2  0
 11 12  1  0
 12 13  2  0
 13 14  1  0
  1 15  1  0
 15 16  2  0
 16 17  1  0
 17 18  2  0
 18 19  1  0
 19 20  1  0
 20 21  1  0
 21 22  1  6
 22 23  1  0
 23 24  1  0
 24 25  2  0
 25 26  1  0
 26 27  2  0
 27 28  1  0
 28 29  2  0
 13  4  1  0
 25 15  1  0
 12  7  1  0
 21 18  1  0
 29 24  1  0
M  END
>  <AAScore>  (1) 
3555.856540085923

>  <RootName>  (1) 
./4ZLY/04_DeltaGEst/trajectory_02/rank_00/lead_0008

$$$$
