confid_2
     RDKit          3D

 29 32  0  0  0  0  0  0  0  0999 V2000
   24.5500   26.3900   36.2500 N   0  0  0  0  0  0  0  0  0  0  0  0
   25.6000   26.1300   35.4000 C   0  0  0  0  0  0  0  0  0  0  0  0
   25.4300   25.4300   34.4200 O   0  0  0  0  0  0  0  0  0  0  0  0
   26.9800   26.6300   35.7100 C   0  0  0  0  0  0  0  0  0  0  0  0
   27.3200   26.8200   36.9800 N   0  0  0  0  0  0  0  0  0  0  0  0
   28.4700   27.4000   37.3100 N   0  0  0  0  0  0  0  0  0  0  0  0
   29.4000   27.6300   36.3700 C   0  0  0  0  0  0  0  0  0  0  0  0
   30.6600   28.0500   36.8000 C   0  0  0  0  0  0  0  0  0  0  0  0
   31.5700   28.3600   35.7800 C   0  0  0  0  0  0  0  0  0  0  0  0
   31.3700   28.1000   34.4300 C   0  0  0  0  0  0  0  0  0  0  0  0
   30.1200   27.5900   34.0500 C   0  0  0  0  0  0  0  0  0  0  0  0
   29.1500   27.3400   35.0300 C   0  0  0  0  0  0  0  0  0  0  0  0
   27.8800   26.8900   34.6600 C   0  0  0  0  0  0  0  0  0  0  0  0
   27.4800   26.6100   33.3700 N   0  0  0  0  0  0  0  0  0  0  0  0
   23.1926   25.8738   36.0167 C   0  0  0  0  0  0  0  0  0  0  0  0
   22.4890   26.6786   34.8960 C   0  0  0  0  0  0  0  0  0  0  0  0
   21.5740   27.7691   35.4724 C   0  0  0  0  0  0  0  0  0  0  0  0
   20.5114   27.2208   36.3595 N   0  0  0  0  0  0  0  0  0  0  0  0
   20.8758   25.9463   37.0261 C   0  0  0  0  0  0  0  0  0  0  0  0
   22.3754   25.8765   37.3298 C   0  0  0  0  0  0  0  0  0  0  0  0
   19.2163   27.0898   35.6611 C   0  0  0  0  0  0  0  0  0  0  0  0
   18.5616   28.4375   35.5094 C   0  0  0  0  0  0  0  0  0  0  0  0
   18.1660   29.1629   36.6414 C   0  0  0  0  0  0  0  0  0  0  0  0
   17.5628   30.4131   36.4947 C   0  0  0  0  0  0  0  0  0  0  0  0
   17.3554   30.9303   35.2133 C   0  0  0  0  0  0  0  0  0  0  0  0
   17.7456   30.2114   34.1234 N   0  0  0  0  0  0  0  0  0  0  0  0
   18.3362   28.9924   34.2405 C   0  0  0  0  0  0  0  0  0  0  0  0
   16.7467   32.1802   35.0669 O   0  0  0  0  0  0  0  0  0  0  0  0
   16.4937   32.7696   33.7967 C   0  0  0  0  0  0  0  0  0  0  0  0
  1  2  1  0
  2  3  2  0
  2  4  1  0
  4  5  2  0
  5  6  1  0
  6  7  2  0
  7  8  1  0
  8  9  2  0
  9 10  1  0
 10 11  2  0
 11 12  1  0
 12 13  2  0
 13 14  1  0
  1 15  1  0
 15 16  1  0
 16 17  1  0
 17 18  1  0
 18 19  1  0
 19 20  1  0
 18 21  1  0
 21 22  1  0
 22 23  2  0
 23 24  1  0
 24 25  2  0
 25 26  1  0
 26 27  2  0
 25 28  1  0
 28 29  1  0
 13  4  1  0
 20 15  1  0
 27 22  1  0
 12  7  1  0
M  END
>  <AAScore>  (1) 
652.8021712757759

>  <RootName>  (1) 
./4ZLY/04_DeltaGEst/trajectory_01/rank_00/lead_0061

$$$$
