confid_13
     RDKit          3D

 28 31  0  0  0  0  0  0  0  0999 V2000
   24.4800   26.1000   36.1300 N   0  0  0  0  0  0  0  0  0  0  0  0
   25.2500   26.2500   34.9900 C   0  0  0  0  0  0  0  0  0  0  0  0
   24.7400   25.7600   33.9900 O   0  0  0  0  0  0  0  0  0  0  0  0
   26.5900   26.8900   34.9600 C   0  0  0  0  0  0  0  0  0  0  0  0
   27.0600   27.2400   36.1600 N   0  0  0  0  0  0  0  0  0  0  0  0
   28.3000   27.7100   36.2400 N   0  0  0  0  0  0  0  0  0  0  0  0
   29.0500   27.9600   35.1500 C   0  0  0  0  0  0  0  0  0  0  0  0
   30.3400   28.4900   35.2600 C   0  0  0  0  0  0  0  0  0  0  0  0
   31.1100   28.8200   34.1400 C   0  0  0  0  0  0  0  0  0  0  0  0
   30.5200   28.6700   32.8800 C   0  0  0  0  0  0  0  0  0  0  0  0
   29.2900   28.0200   32.7700 C   0  0  0  0  0  0  0  0  0  0  0  0
   28.5200   27.7100   33.8900 C   0  0  0  0  0  0  0  0  0  0  0  0
   27.2700   27.0800   33.7600 C   0  0  0  0  0  0  0  0  0  0  0  0
   26.7500   26.8800   32.4900 N   0  0  0  0  0  0  0  0  0  0  0  0
   23.5278   25.0445   36.3579 C   0  0  0  0  0  0  0  0  0  0  0  0
   22.4548   25.2870   37.1539 N   0  0  0  0  0  0  0  0  0  0  0  0
   21.5297   24.3333   37.4304 C   0  0  0  0  0  0  0  0  0  0  0  0
   21.6639   23.0349   36.9137 C   0  0  0  0  0  0  0  0  0  0  0  0
   20.5483   22.0486   37.1535 C   0  0  0  0  0  0  0  0  0  0  0  0
   19.5437   22.1807   36.0914 N   0  0  0  0  0  0  0  0  0  0  0  0
   18.3124   22.9369   36.3446 C   0  0  0  0  0  0  0  0  0  0  0  0
   19.8043   21.7075   34.7532 C   0  0  0  0  0  0  0  0  0  0  0  0
   19.1860   22.2198   33.7796 O   0  0  0  0  0  0  0  0  0  0  0  0
   20.7907   20.6065   34.4720 C   0  0  0  0  0  0  0  0  0  0  0  0
   22.2108   21.1366   34.2185 C   0  0  0  0  0  0  0  0  0  0  0  0
   23.0213   21.3684   35.5047 C   0  0  0  0  0  0  0  0  0  0  0  0
   22.7845   22.7400   36.1008 C   0  0  0  0  0  0  0  0  0  0  0  0
   23.7148   23.7580   35.8303 C   0  0  0  0  0  0  0  0  0  0  0  0
  1  2  1  0
  2  3  2  0
  2  4  1  0
  4  5  2  0
  5  6  1  0
  6  7  2  0
  7  8  1  0
  8  9  2  0
  9 10  1  0
 10 11  2  0
 11 12  1  0
 12 13  2  0
 13 14  1  0
  1 15  1  0
 15 16  2  0
 16 17  1  0
 17 18  2  0
 18 19  1  0
 19 20  1  0
 20 21  1  0
 20 22  1  0
 22 23  2  0
 22 24  1  0
 24 25  1  0
 25 26  1  0
 26 27  1  0
 27 28  2  0
 13  4  1  0
 28 15  1  0
 12  7  1  0
 27 18  1  0
M  END
>  <AAScore>  (1) 
451.142631313936

>  <RootName>  (1) 
./4ZLY/04_DeltaGEst/trajectory_00/rank_00/lead_0488

$$$$
