confid_4
     RDKit          3D

 30 34  0  0  0  0  0  0  0  0999 V2000
   24.2000   26.2400   35.6900 N   0  0  0  0  0  0  0  0  0  0  0  0
   24.8500   26.2800   34.4800 C   0  0  0  0  0  0  0  0  0  0  0  0
   24.3100   25.7400   33.5400 O   0  0  0  0  0  0  0  0  0  0  0  0
   26.1800   26.9700   34.4700 C   0  0  0  0  0  0  0  0  0  0  0  0
   26.6500   27.6000   35.5500 N   0  0  0  0  0  0  0  0  0  0  0  0
   27.7900   28.2700   35.6200 N   0  0  0  0  0  0  0  0  0  0  0  0
   28.5400   28.3000   34.5100 C   0  0  0  0  0  0  0  0  0  0  0  0
   29.7700   28.9400   34.5600 C   0  0  0  0  0  0  0  0  0  0  0  0
   30.7000   28.8900   33.5000 C   0  0  0  0  0  0  0  0  0  0  0  0
   30.3700   28.1400   32.3700 C   0  0  0  0  0  0  0  0  0  0  0  0
   29.1200   27.5200   32.2800 C   0  0  0  0  0  0  0  0  0  0  0  0
   28.2100   27.6100   33.3300 C   0  0  0  0  0  0  0  0  0  0  0  0
   26.9700   26.9700   33.3100 C   0  0  0  0  0  0  0  0  0  0  0  0
   26.5300   26.2400   32.2200 N   0  0  0  0  0  0  0  0  0  0  0  0
   23.2081   25.2611   36.0458 C   0  0  0  0  0  0  0  0  0  0  0  0
   22.3753   25.5492   37.0071 N   0  0  0  0  0  0  0  0  0  0  0  0
   21.3431   24.6743   37.4747 C   0  0  0  0  0  0  0  0  0  0  0  0
   20.4537   24.1896   36.6201 C   0  0  0  0  0  0  0  0  0  0  0  0
   19.3870   23.1409   36.5275 C   0  0  0  0  0  0  0  0  0  0  0  0
   19.1396   23.3379   35.1692 O   0  0  0  0  0  0  0  0  0  0  0  0
   20.0716   24.3736   35.1785 C   0  0  2  0  0  0  0  0  0  0  0  0
   21.2107   24.1803   34.1517 C   0  0  0  0  0  0  0  0  0  0  0  0
   22.3806   23.3481   34.6525 C   0  0  0  0  0  0  0  0  0  0  0  0
   23.3043   23.8688   35.5078 C   0  0  0  0  0  0  0  0  0  0  0  0
   24.4294   23.0381   36.0084 C   0  0  0  0  0  0  0  0  0  0  0  0
   25.5731   23.5498   36.1493 O   0  0  0  0  0  0  0  0  0  0  0  0
   24.2432   21.6963   36.3655 O   0  0  0  0  0  0  0  0  0  0  0  0
   22.9518   21.1003   36.4783 C   0  0  0  0  0  0  0  0  0  0  0  0
   22.3265   20.8382   35.0987 C   0  0  0  0  0  0  0  0  0  0  0  0
   22.5758   21.9573   34.0731 C   0  0  0  0  0  0  0  0  0  0  0  0
  1  2  1  0
  2  3  2  0
  2  4  1  0
  4  5  2  0
  5  6  1  0
  6  7  2  0
  7  8  1  0
  8  9  2  0
  9 10  1  0
 10 11  2  0
 11 12  1  0
 12 13  2  0
 13 14  1  0
  1 15  1  0
 15 16  2  0
 16 17  1  0
 17 18  2  0
 18 19  1  0
 19 20  1  0
 20 21  1  0
 21 22  1  6
 22 23  1  0
 23 24  2  0
 24 25  1  0
 25 26  2  0
 25 27  1  0
 27 28  1  0
 28 29  1  0
 29 30  1  0
 13  4  1  0
 24 15  1  0
 12  7  1  0
 21 18  1  0
 30 23  1  0
M  END
>  <AAScore>  (1) 
5324.7379405941165

>  <RootName>  (1) 
./4ZLY/04_DeltaGEst/trajectory_04/rank_00/lead_0026

$$$$
