confid_8
     RDKit          3D

 27 31  0  0  0  0  0  0  0  0999 V2000
   24.5700   26.8800   35.5900 N   0  0  0  0  0  0  0  0  0  0  0  0
   25.5000   26.4000   34.6900 C   0  0  0  0  0  0  0  0  0  0  0  0
   25.1700   25.5200   33.9100 O   0  0  0  0  0  0  0  0  0  0  0  0
   26.8400   27.0200   34.7400 C   0  0  0  0  0  0  0  0  0  0  0  0
   27.3800   27.2800   35.9400 N   0  0  0  0  0  0  0  0  0  0  0  0
   28.6200   27.7400   36.0300 N   0  0  0  0  0  0  0  0  0  0  0  0
   29.3800   28.0000   34.9600 C   0  0  0  0  0  0  0  0  0  0  0  0
   30.6700   28.5000   35.1300 C   0  0  0  0  0  0  0  0  0  0  0  0
   31.5400   28.6100   34.0300 C   0  0  0  0  0  0  0  0  0  0  0  0
   31.0900   28.2200   32.7700 C   0  0  0  0  0  0  0  0  0  0  0  0
   29.8000   27.7000   32.6000 C   0  0  0  0  0  0  0  0  0  0  0  0
   28.9600   27.5500   33.7100 C   0  0  0  0  0  0  0  0  0  0  0  0
   27.6600   27.0300   33.5900 C   0  0  0  0  0  0  0  0  0  0  0  0
   27.1600   26.7400   32.3400 N   0  0  0  0  0  0  0  0  0  0  0  0
   23.1475   26.7184   35.4546 C   0  0  0  0  0  0  0  0  0  0  0  0
   22.3771   26.6456   36.6046 N   0  0  0  0  0  0  0  0  0  0  0  0
   21.0102   26.5207   36.5977 C   0  0  0  0  0  0  0  0  0  0  0  0
   20.4146   26.4836   35.3589 C   0  0  0  0  0  0  0  0  0  0  0  0
   19.2573   26.4028   34.5231 C   0  0  2  0  0  0  0  0  0  0  0  0
   18.5235   25.0600   34.6564 C   0  0  0  0  0  0  0  0  0  0  0  0
   17.3597   25.0242   33.7485 N   0  0  0  0  0  0  0  0  0  0  0  0
   16.5984   23.7758   33.9052 C   0  0  0  0  0  0  0  0  0  0  0  0
   16.9420   23.2907   32.5110 C   0  0  0  0  0  0  0  0  0  0  0  0
   17.7184   24.5863   32.3899 C   0  0  0  0  0  0  0  0  0  0  0  0
   19.9941   26.4838   33.3482 O   0  0  0  0  0  0  0  0  0  0  0  0
   21.1559   26.5719   34.1831 C   0  0  0  0  0  0  0  0  0  0  0  0
   22.5291   26.6967   34.1681 C   0  0  0  0  0  0  0  0  0  0  0  0
  1  2  1  0
  2  3  2  0
  2  4  1  0
  4  5  2  0
  5  6  1  0
  6  7  2  0
  7  8  1  0
  8  9  2  0
  9 10  1  0
 10 11  2  0
 11 12  1  0
 12 13  2  0
 13 14  1  0
  1 15  1  0
 15 16  2  0
 16 17  1  0
 17 18  2  0
 18 19  1  0
 19 20  1  6
 20 21  1  0
 21 22  1  0
 22 23  1  0
 23 24  1  0
 19 25  1  0
 25 26  1  0
 26 27  2  0
 13  4  1  0
 27 15  1  0
 12  7  1  0
 26 18  1  0
 24 21  1  0
M  END
>  <AAScore>  (1) 
33513.20858171419

>  <RootName>  (1) 
./4ZLY/04_DeltaGEst/trajectory_05/rank_00/lead_0412

$$$$
