confid_16
     RDKit          3D

 26 29  0  0  0  0  0  0  0  0999 V2000
   25.3300   26.2600   34.7600 N   0  0  0  0  0  0  0  0  0  0  0  0
   26.1200   25.9200   33.6900 C   0  0  0  0  0  0  0  0  0  0  0  0
   25.6300   25.1100   32.9400 O   0  0  0  0  0  0  0  0  0  0  0  0
   27.5200   26.3800   33.4600 C   0  0  0  0  0  0  0  0  0  0  0  0
   28.1600   26.6300   34.6100 N   0  0  0  0  0  0  0  0  0  0  0  0
   29.4800   26.8500   34.5700 N   0  0  0  0  0  0  0  0  0  0  0  0
   30.1900   26.7800   33.4400 C   0  0  0  0  0  0  0  0  0  0  0  0
   31.5600   27.0500   33.5000 C   0  0  0  0  0  0  0  0  0  0  0  0
   32.2700   27.2400   32.3100 C   0  0  0  0  0  0  0  0  0  0  0  0
   31.6100   27.2500   31.0800 C   0  0  0  0  0  0  0  0  0  0  0  0
   30.2700   26.8700   31.0600 C   0  0  0  0  0  0  0  0  0  0  0  0
   29.5100   26.6900   32.2300 C   0  0  0  0  0  0  0  0  0  0  0  0
   28.1400   26.4100   32.2000 C   0  0  0  0  0  0  0  0  0  0  0  0
   27.4300   26.1300   31.0500 N   0  0  0  0  0  0  0  0  0  0  0  0
   24.1908   25.5281   35.2472 C   0  0  0  0  0  0  0  0  0  0  0  0
   23.3548   26.0340   36.1796 N   0  0  0  0  0  0  0  0  0  0  0  0
   22.3795   25.1543   36.5413 C   0  0  0  0  0  0  0  0  0  0  0  0
   21.4234   25.5057   37.6468 C   0  0  0  0  0  0  0  0  0  0  0  0
   19.9640   25.5653   37.1626 C   0  0  0  0  0  0  0  0  0  0  0  0
   19.1367   24.4572   37.6903 N   0  0  0  0  0  0  0  0  0  0  0  0
   17.7592   24.5592   37.1789 C   0  0  0  0  0  0  0  0  0  0  0  0
   19.6872   23.0956   37.4811 C   0  0  0  0  0  0  0  0  0  0  0  0
   20.2092   22.8283   36.0586 C   0  0  0  0  0  0  0  0  0  0  0  0
   21.6337   22.7944   36.0242 O   0  0  0  0  0  0  0  0  0  0  0  0
   22.4569   23.9168   35.8843 C   0  0  0  0  0  0  0  0  0  0  0  0
   23.7865   23.9387   34.8580 S   0  0  0  0  0  0  0  0  0  0  0  0
  1  2  1  0
  2  3  2  0
  2  4  1  0
  4  5  2  0
  5  6  1  0
  6  7  2  0
  7  8  1  0
  8  9  2  0
  9 10  1  0
 10 11  2  0
 11 12  1  0
 12 13  2  0
 13 14  1  0
  1 15  1  0
 15 16  2  0
 16 17  1  0
 17 18  1  0
 18 19  1  0
 19 20  1  0
 20 21  1  0
 20 22  1  0
 22 23  1  0
 23 24  1  0
 24 25  1  0
 25 26  1  0
 13  4  1  0
 26 15  1  0
 12  7  1  0
 25 17  2  0
M  END
>  <AAScore>  (1) 
2502.298154265992

>  <RootName>  (1) 
./4ZLY/04_DeltaGEst/trajectory_03/rank_00/lead_0137

$$$$
