confid_12
     RDKit          3D

 27 30  0  0  0  0  0  0  0  0999 V2000
   25.3300   26.2600   34.7600 N   0  0  0  0  0  0  0  0  0  0  0  0
   26.1200   25.9200   33.6900 C   0  0  0  0  0  0  0  0  0  0  0  0
   25.6300   25.1100   32.9400 O   0  0  0  0  0  0  0  0  0  0  0  0
   27.5200   26.3800   33.4600 C   0  0  0  0  0  0  0  0  0  0  0  0
   28.1600   26.6300   34.6100 N   0  0  0  0  0  0  0  0  0  0  0  0
   29.4800   26.8500   34.5700 N   0  0  0  0  0  0  0  0  0  0  0  0
   30.1900   26.7800   33.4400 C   0  0  0  0  0  0  0  0  0  0  0  0
   31.5600   27.0500   33.5000 C   0  0  0  0  0  0  0  0  0  0  0  0
   32.2700   27.2400   32.3100 C   0  0  0  0  0  0  0  0  0  0  0  0
   31.6100   27.2500   31.0800 C   0  0  0  0  0  0  0  0  0  0  0  0
   30.2700   26.8700   31.0600 C   0  0  0  0  0  0  0  0  0  0  0  0
   29.5100   26.6900   32.2300 C   0  0  0  0  0  0  0  0  0  0  0  0
   28.1400   26.4100   32.2000 C   0  0  0  0  0  0  0  0  0  0  0  0
   27.4300   26.1300   31.0500 N   0  0  0  0  0  0  0  0  0  0  0  0
   27.6162   24.8173   30.4084 C   0  0  0  0  0  0  0  0  0  0  0  0
   26.8527   24.6670   29.0861 C   0  0  0  0  0  0  0  0  0  0  0  0
   27.3381   25.6336   28.0451 C   0  0  0  0  0  0  0  0  0  0  0  0
   27.7307   25.2327   26.8177 N   0  0  0  0  0  0  0  0  0  0  0  0
   28.0755   26.3180   26.1430 N   0  0  0  0  0  0  0  0  0  0  0  0
   27.8941   27.3695   26.9652 C   0  0  0  0  0  0  0  0  0  0  0  0
   27.4046   26.9825   28.1721 N   0  0  0  0  0  0  0  0  0  0  0  0
   27.1193   27.8643   29.3158 C   0  0  0  0  0  0  0  0  0  0  0  0
   26.5128   27.1521   30.5240 C   0  0  0  0  0  0  0  0  0  0  0  0
   28.1679   28.8008   26.5547 C   0  0  0  0  0  0  0  0  0  0  0  0
   29.5926   29.0738   26.2393 N   0  0  0  0  0  0  0  0  0  0  0  0
   30.0217   28.4717   24.9663 C   0  0  0  0  0  0  0  0  0  0  0  0
   30.4971   28.6980   27.3429 C   0  0  0  0  0  0  0  0  0  0  0  0
  1  2  1  0
  2  3  2  0
  2  4  1  0
  4  5  2  0
  5  6  1  0
  6  7  2  0
  7  8  1  0
  8  9  2  0
  9 10  1  0
 10 11  2  0
 11 12  1  0
 12 13  2  0
 13 14  1  0
 14 15  1  0
 15 16  1  0
 16 17  1  0
 17 18  2  0
 18 19  1  0
 19 20  2  0
 20 21  1  0
 21 22  1  0
 22 23  1  0
 20 24  1  0
 24 25  1  0
 25 26  1  0
 25 27  1  0
 13  4  1  0
 23 14  1  0
 12  7  1  0
 21 17  1  0
M  END
>  <AAScore>  (1) 
1.286466422768835

>  <RootName>  (1) 
./4ZLY/04_DeltaGEst/trajectory_03/rank_01/lead_0157

$$$$
