confid_18
     RDKit          3D

 29 33  0  0  0  0  0  0  0  0999 V2000
   24.5500   26.3900   36.2500 N   0  0  0  0  0  0  0  0  0  0  0  0
   25.6000   26.1300   35.4000 C   0  0  0  0  0  0  0  0  0  0  0  0
   25.4300   25.4300   34.4200 O   0  0  0  0  0  0  0  0  0  0  0  0
   26.9800   26.6300   35.7100 C   0  0  0  0  0  0  0  0  0  0  0  0
   27.3200   26.8200   36.9800 N   0  0  0  0  0  0  0  0  0  0  0  0
   28.4700   27.4000   37.3100 N   0  0  0  0  0  0  0  0  0  0  0  0
   29.4000   27.6300   36.3700 C   0  0  0  0  0  0  0  0  0  0  0  0
   30.6600   28.0500   36.8000 C   0  0  0  0  0  0  0  0  0  0  0  0
   31.5700   28.3600   35.7800 C   0  0  0  0  0  0  0  0  0  0  0  0
   31.3700   28.1000   34.4300 C   0  0  0  0  0  0  0  0  0  0  0  0
   30.1200   27.5900   34.0500 C   0  0  0  0  0  0  0  0  0  0  0  0
   29.1500   27.3400   35.0300 C   0  0  0  0  0  0  0  0  0  0  0  0
   27.8800   26.8900   34.6600 C   0  0  0  0  0  0  0  0  0  0  0  0
   27.4800   26.6100   33.3700 N   0  0  0  0  0  0  0  0  0  0  0  0
   30.9738   28.2956   38.1842 N   0  0  0  0  0  0  0  0  0  0  0  0
   31.4359   29.6182   38.6106 C   0  0  0  0  0  0  0  0  0  0  0  0
   30.6761   30.0774   39.8589 C   0  0  0  0  0  0  0  0  0  0  0  0
   29.2840   29.5944   39.8310 N   0  0  0  0  0  0  0  0  0  0  0  0
   28.9992   28.2762   40.3622 C   0  0  0  0  0  0  0  0  0  0  0  0
   27.9087   28.1107   41.2414 C   0  0  0  0  0  0  0  0  0  0  0  0
   27.5916   26.8587   41.7661 C   0  0  0  0  0  0  0  0  0  0  0  0
   28.3612   25.7482   41.4348 C   0  0  0  0  0  0  0  0  0  0  0  0
   29.4537   25.8858   40.5804 C   0  0  0  0  0  0  0  0  0  0  0  0
   29.7855   27.1349   40.0240 C   0  0  0  0  0  0  0  0  0  0  0  0
   31.0150   27.1876   39.1411 C   0  0  0  0  0  0  0  0  0  0  0  0
   28.1415   30.4679   39.4731 C   0  0  0  0  0  0  0  0  0  0  0  0
   27.9536   31.6229   40.4284 C   0  0  0  0  0  0  0  0  0  0  0  0
   28.2326   32.5797   39.4323 O   0  0  0  0  0  0  0  0  0  0  0  0
   28.4155   31.5680   38.4692 C   0  0  0  0  0  0  0  0  0  0  0  0
  1  2  1  0
  2  3  2  0
  2  4  1  0
  4  5  2  0
  5  6  1  0
  6  7  2  0
  7  8  1  0
  8  9  2  0
  9 10  1  0
 10 11  2  0
 11 12  1  0
 12 13  2  0
 13 14  1  0
  8 15  1  0
 15 16  1  0
 16 17  1  0
 17 18  1  0
 18 19  1  0
 19 20  2  0
 20 21  1  0
 21 22  2  0
 22 23  1  0
 23 24  2  0
 24 25  1  0
 18 26  1  0
 26 27  1  0
 27 28  1  0
 28 29  1  0
 13  4  1  0
 25 15  1  0
 29 26  1  0
 12  7  1  0
 24 19  1  0
M  END
>  <AAScore>  (1) 
124.01449345442438

>  <RootName>  (1) 
./4ZLY/04_DeltaGEst/trajectory_01/rank_01/lead_0014

$$$$
