confid_6
     RDKit          3D

 28 31  0  0  0  0  0  0  0  0999 V2000
   24.5700   26.8800   35.5900 N   0  0  0  0  0  0  0  0  0  0  0  0
   25.5000   26.4000   34.6900 C   0  0  0  0  0  0  0  0  0  0  0  0
   25.1700   25.5200   33.9100 O   0  0  0  0  0  0  0  0  0  0  0  0
   26.8400   27.0200   34.7400 C   0  0  0  0  0  0  0  0  0  0  0  0
   27.3800   27.2800   35.9400 N   0  0  0  0  0  0  0  0  0  0  0  0
   28.6200   27.7400   36.0300 N   0  0  0  0  0  0  0  0  0  0  0  0
   29.3800   28.0000   34.9600 C   0  0  0  0  0  0  0  0  0  0  0  0
   30.6700   28.5000   35.1300 C   0  0  0  0  0  0  0  0  0  0  0  0
   31.5400   28.6100   34.0300 C   0  0  0  0  0  0  0  0  0  0  0  0
   31.0900   28.2200   32.7700 C   0  0  0  0  0  0  0  0  0  0  0  0
   29.8000   27.7000   32.6000 C   0  0  0  0  0  0  0  0  0  0  0  0
   28.9600   27.5500   33.7100 C   0  0  0  0  0  0  0  0  0  0  0  0
   27.6600   27.0300   33.5900 C   0  0  0  0  0  0  0  0  0  0  0  0
   27.1600   26.7400   32.3400 N   0  0  0  0  0  0  0  0  0  0  0  0
   23.3584   26.1958   35.9539 C   0  0  0  0  0  0  0  0  0  0  0  0
   22.2552   26.9284   36.2522 N   0  0  0  0  0  0  0  0  0  0  0  0
   21.0813   26.3496   36.6070 C   0  0  0  0  0  0  0  0  0  0  0  0
   20.9790   24.9554   36.7099 C   0  0  0  0  0  0  0  0  0  0  0  0
   19.6392   24.3350   36.9788 C   0  0  0  0  0  0  0  0  0  0  0  0
   19.7852   23.0784   37.7109 N   0  0  0  0  0  0  0  0  0  0  0  0
   18.7836   22.6807   38.7040 C   0  0  0  0  0  0  0  0  0  0  0  0
   20.8305   22.1618   37.3463 C   0  0  0  0  0  0  0  0  0  0  0  0
   20.7380   20.9498   37.6911 O   0  0  0  0  0  0  0  0  0  0  0  0
   22.0255   22.6182   36.5174 C   0  0  0  0  0  0  0  0  0  0  0  0
   23.3057   22.0174   37.1538 C   0  0  0  0  0  0  0  0  0  0  0  0
   21.8596   22.0775   35.0867 C   0  0  0  0  0  0  0  0  0  0  0  0
   22.1137   24.1528   36.4571 C   0  0  0  0  0  0  0  0  0  0  0  0
   23.3039   24.7960   36.0532 C   0  0  0  0  0  0  0  0  0  0  0  0
  1  2  1  0
  2  3  2  0
  2  4  1  0
  4  5  2  0
  5  6  1  0
  6  7  2  0
  7  8  1  0
  8  9  2  0
  9 10  1  0
 10 11  2  0
 11 12  1  0
 12 13  2  0
 13 14  1  0
  1 15  1  0
 15 16  2  0
 16 17  1  0
 17 18  2  0
 18 19  1  0
 19 20  1  0
 20 21  1  0
 20 22  1  0
 22 23  2  0
 22 24  1  0
 24 25  1  0
 24 26  1  0
 24 27  1  0
 27 28  2  0
 13  4  1  0
 28 15  1  0
 12  7  1  0
 27 18  1  0
M  END
>  <AAScore>  (1) 
9747.856991077875

>  <RootName>  (1) 
./4ZLY/04_DeltaGEst/trajectory_05/rank_00/lead_0294

$$$$
