confid_1
     RDKit          3D

 31 35  0  0  0  0  0  0  0  0999 V2000
   24.2000   26.2400   35.6900 N   0  0  0  0  0  0  0  0  0  0  0  0
   24.8500   26.2800   34.4800 C   0  0  0  0  0  0  0  0  0  0  0  0
   24.3100   25.7400   33.5400 O   0  0  0  0  0  0  0  0  0  0  0  0
   26.1800   26.9700   34.4700 C   0  0  0  0  0  0  0  0  0  0  0  0
   26.6500   27.6000   35.5500 N   0  0  0  0  0  0  0  0  0  0  0  0
   27.7900   28.2700   35.6200 N   0  0  0  0  0  0  0  0  0  0  0  0
   28.5400   28.3000   34.5100 C   0  0  0  0  0  0  0  0  0  0  0  0
   29.7700   28.9400   34.5600 C   0  0  0  0  0  0  0  0  0  0  0  0
   30.7000   28.8900   33.5000 C   0  0  0  0  0  0  0  0  0  0  0  0
   30.3700   28.1400   32.3700 C   0  0  0  0  0  0  0  0  0  0  0  0
   29.1200   27.5200   32.2800 C   0  0  0  0  0  0  0  0  0  0  0  0
   28.2100   27.6100   33.3300 C   0  0  0  0  0  0  0  0  0  0  0  0
   26.9700   26.9700   33.3100 C   0  0  0  0  0  0  0  0  0  0  0  0
   26.5300   26.2400   32.2200 N   0  0  0  0  0  0  0  0  0  0  0  0
   22.8664   25.7353   35.8141 C   0  0  0  0  0  0  0  0  0  0  0  0
   22.7129   24.6015   36.4415 N   0  0  0  0  0  0  0  0  0  0  0  0
   21.5948   23.7390   36.7096 C   0  0  0  0  0  0  0  0  0  0  0  0
   20.5829   23.5791   35.8639 C   0  0  0  0  0  0  0  0  0  0  0  0
   19.8302   22.4000   35.3127 C   0  0  0  0  0  0  0  0  0  0  0  0
   19.2969   23.0905   34.2279 O   0  0  0  0  0  0  0  0  0  0  0  0
   19.8430   24.2553   34.7545 C   0  0  2  0  0  0  0  0  0  0  0  0
   20.7698   25.0154   33.8084 C   0  0  0  0  0  0  0  0  0  0  0  0
   20.9115   26.4003   34.3911 C   0  0  0  0  0  0  0  0  0  0  0  0
   21.7656   26.6456   35.4116 C   0  0  0  0  0  0  0  0  0  0  0  0
   21.7252   27.8834   36.0596 O   0  0  0  0  0  0  0  0  0  0  0  0
   22.5393   28.9760   35.6355 C   0  0  0  0  0  0  0  0  0  0  0  0
   21.6695   30.1584   35.1868 C   0  0  0  0  0  0  0  0  0  0  0  0
   20.3351   29.7250   34.7234 N   0  0  0  0  0  0  0  0  0  0  0  0
   20.3899   28.7841   33.5772 C   0  0  0  0  0  0  0  0  0  0  0  0
   19.8398   27.4148   34.0163 C   0  0  0  0  0  0  0  0  0  0  0  0
   19.4933   30.8954   34.4271 C   0  0  0  0  0  0  0  0  0  0  0  0
  1  2  1  0
  2  3  2  0
  2  4  1  0
  4  5  2  0
  5  6  1  0
  6  7  2  0
  7  8  1  0
  8  9  2  0
  9 10  1  0
 10 11  2  0
 11 12  1  0
 12 13  2  0
 13 14  1  0
  1 15  1  0
 15 16  2  0
 16 17  1  0
 17 18  2  0
 18 19  1  0
 19 20  1  0
 20 21  1  0
 21 22  1  6
 22 23  1  0
 23 24  2  0
 24 25  1  0
 25 26  1  0
 26 27  1  0
 27 28  1  0
 28 29  1  0
 29 30  1  0
 28 31  1  0
 13  4  1  0
 24 15  1  0
 12  7  1  0
 21 18  1  0
 30 23  1  0
M  END
>  <AAScore>  (1) 
2200.8956937594053

>  <RootName>  (1) 
./4ZLY/04_DeltaGEst/trajectory_04/rank_00/lead_0334

$$$$
