confid_9
     RDKit          3D

 27 30  0  0  0  0  0  0  0  0999 V2000
   25.3300   26.2600   34.7600 N   0  0  0  0  0  0  0  0  0  0  0  0
   26.1200   25.9200   33.6900 C   0  0  0  0  0  0  0  0  0  0  0  0
   25.6300   25.1100   32.9400 O   0  0  0  0  0  0  0  0  0  0  0  0
   27.5200   26.3800   33.4600 C   0  0  0  0  0  0  0  0  0  0  0  0
   28.1600   26.6300   34.6100 N   0  0  0  0  0  0  0  0  0  0  0  0
   29.4800   26.8500   34.5700 N   0  0  0  0  0  0  0  0  0  0  0  0
   30.1900   26.7800   33.4400 C   0  0  0  0  0  0  0  0  0  0  0  0
   31.5600   27.0500   33.5000 C   0  0  0  0  0  0  0  0  0  0  0  0
   32.2700   27.2400   32.3100 C   0  0  0  0  0  0  0  0  0  0  0  0
   31.6100   27.2500   31.0800 C   0  0  0  0  0  0  0  0  0  0  0  0
   30.2700   26.8700   31.0600 C   0  0  0  0  0  0  0  0  0  0  0  0
   29.5100   26.6900   32.2300 C   0  0  0  0  0  0  0  0  0  0  0  0
   28.1400   26.4100   32.2000 C   0  0  0  0  0  0  0  0  0  0  0  0
   27.4300   26.1300   31.0500 N   0  0  0  0  0  0  0  0  0  0  0  0
   23.8946   26.1748   34.8068 C   0  0  0  0  0  0  0  0  0  0  0  0
   23.2031   26.3356   35.9651 N   0  0  0  0  0  0  0  0  0  0  0  0
   21.8756   26.2541   35.7115 C   0  0  0  0  0  0  0  0  0  0  0  0
   20.7393   26.1138   36.6342 C   0  0  0  0  0  0  0  0  0  0  0  0
   19.5690   25.9653   35.7324 N   0  0  0  0  0  0  0  0  0  0  0  0
   18.5310   25.0821   36.2866 C   0  0  0  0  0  0  0  0  0  0  0  0
   20.0712   25.6498   34.3509 C   0  0  2  0  0  0  0  0  0  0  0  0
   19.9615   24.1508   33.9788 C   0  0  0  0  0  0  0  0  0  0  0  0
   21.5059   26.0238   34.4450 C   0  0  0  0  0  0  0  0  0  0  0  0
   22.8672   25.8735   33.4730 S   0  0  0  0  0  0  0  0  0  0  0  0
   19.3565   26.5196   33.3286 C   0  0  0  0  0  0  0  0  0  0  0  0
   18.4309   27.2350   33.6836 O   0  0  0  0  0  0  0  0  0  0  0  0
   19.7393   26.5259   31.8746 C   0  0  0  0  0  0  0  0  0  0  0  0
  1  2  1  0
  2  3  2  0
  2  4  1  0
  4  5  2  0
  5  6  1  0
  6  7  2  0
  7  8  1  0
  8  9  2  0
  9 10  1  0
 10 11  2  0
 11 12  1  0
 12 13  2  0
 13 14  1  0
  1 15  1  0
 15 16  2  0
 16 17  1  0
 17 18  1  0
 18 19  1  0
 19 20  1  0
 19 21  1  0
 21 22  1  6
 21 23  1  0
 23 24  1  0
 21 25  1  0
 25 26  2  0
 25 27  1  0
 13  4  1  0
 24 15  1  0
 12  7  1  0
 23 17  2  0
M  END
>  <AAScore>  (1) 
2368.6882754212074

>  <RootName>  (1) 
./4ZLY/04_DeltaGEst/trajectory_03/rank_00/lead_0187

$$$$
