confid_10
     RDKit          3D

 27 30  0  0  0  0  0  0  0  0999 V2000
   25.3300   26.2600   34.7600 N   0  0  0  0  0  0  0  0  0  0  0  0
   26.1200   25.9200   33.6900 C   0  0  0  0  0  0  0  0  0  0  0  0
   25.6300   25.1100   32.9400 O   0  0  0  0  0  0  0  0  0  0  0  0
   27.5200   26.3800   33.4600 C   0  0  0  0  0  0  0  0  0  0  0  0
   28.1600   26.6300   34.6100 N   0  0  0  0  0  0  0  0  0  0  0  0
   29.4800   26.8500   34.5700 N   0  0  0  0  0  0  0  0  0  0  0  0
   30.1900   26.7800   33.4400 C   0  0  0  0  0  0  0  0  0  0  0  0
   31.5600   27.0500   33.5000 C   0  0  0  0  0  0  0  0  0  0  0  0
   32.2700   27.2400   32.3100 C   0  0  0  0  0  0  0  0  0  0  0  0
   31.6100   27.2500   31.0800 C   0  0  0  0  0  0  0  0  0  0  0  0
   30.2700   26.8700   31.0600 C   0  0  0  0  0  0  0  0  0  0  0  0
   29.5100   26.6900   32.2300 C   0  0  0  0  0  0  0  0  0  0  0  0
   28.1400   26.4100   32.2000 C   0  0  0  0  0  0  0  0  0  0  0  0
   27.4300   26.1300   31.0500 N   0  0  0  0  0  0  0  0  0  0  0  0
   27.3528   24.7405   30.5674 C   0  0  0  0  0  0  0  0  0  0  0  0
   28.2599   24.4933   29.3591 C   0  0  0  0  0  0  0  0  0  0  0  0
   28.1241   25.4667   28.2155 C   0  0  0  0  0  0  0  0  0  0  0  0
   28.9429   25.4164   27.1472 N   0  0  0  0  0  0  0  0  0  0  0  0
   28.5873   26.3954   26.3308 N   0  0  0  0  0  0  0  0  0  0  0  0
   27.5532   27.0353   26.9085 C   0  0  0  0  0  0  0  0  0  0  0  0
   26.8676   28.2151   26.2839 C   0  0  0  0  0  0  0  0  0  0  0  0
   25.5331   27.9222   26.0724 F   0  0  0  0  0  0  0  0  0  0  0  0
   27.4554   28.5194   25.0691 F   0  0  0  0  0  0  0  0  0  0  0  0
   26.9747   29.3126   27.1180 F   0  0  0  0  0  0  0  0  0  0  0  0
   27.2325   26.4794   28.0993 N   0  0  0  0  0  0  0  0  0  0  0  0
   26.1587   26.8707   29.0175 C   0  0  0  0  0  0  0  0  0  0  0  0
   26.7251   27.2398   30.3914 C   0  0  0  0  0  0  0  0  0  0  0  0
  1  2  1  0
  2  3  2  0
  2  4  1  0
  4  5  2  0
  5  6  1  0
  6  7  2  0
  7  8  1  0
  8  9  2  0
  9 10  1  0
 10 11  2  0
 11 12  1  0
 12 13  2  0
 13 14  1  0
 14 15  1  0
 15 16  1  0
 16 17  1  0
 17 18  2  0
 18 19  1  0
 19 20  2  0
 20 21  1  0
 21 22  1  0
 21 23  1  0
 21 24  1  0
 20 25  1  0
 25 26  1  0
 26 27  1  0
 13  4  1  0
 27 14  1  0
 12  7  1  0
 25 17  1  0
M  END
>  <AAScore>  (1) 
36.5438680834766

>  <RootName>  (1) 
./4ZLY/04_DeltaGEst/trajectory_03/rank_01/lead_0244

$$$$
