confid_2
     RDKit          3D

 27 29  0  0  0  0  0  0  0  0999 V2000
   24.5700   26.8800   35.5900 N   0  0  0  0  0  0  0  0  0  0  0  0
   25.5000   26.4000   34.6900 C   0  0  0  0  0  0  0  0  0  0  0  0
   25.1700   25.5200   33.9100 O   0  0  0  0  0  0  0  0  0  0  0  0
   26.8400   27.0200   34.7400 C   0  0  0  0  0  0  0  0  0  0  0  0
   27.3800   27.2800   35.9400 N   0  0  0  0  0  0  0  0  0  0  0  0
   28.6200   27.7400   36.0300 N   0  0  0  0  0  0  0  0  0  0  0  0
   29.3800   28.0000   34.9600 C   0  0  0  0  0  0  0  0  0  0  0  0
   30.6700   28.5000   35.1300 C   0  0  0  0  0  0  0  0  0  0  0  0
   31.5400   28.6100   34.0300 C   0  0  0  0  0  0  0  0  0  0  0  0
   31.0900   28.2200   32.7700 C   0  0  0  0  0  0  0  0  0  0  0  0
   29.8000   27.7000   32.6000 C   0  0  0  0  0  0  0  0  0  0  0  0
   28.9600   27.5500   33.7100 C   0  0  0  0  0  0  0  0  0  0  0  0
   27.6600   27.0300   33.5900 C   0  0  0  0  0  0  0  0  0  0  0  0
   27.1600   26.7400   32.3400 N   0  0  0  0  0  0  0  0  0  0  0  0
   33.1586   29.2709   34.2332 S   0  0  0  0  0  6  0  0  0  0  0  0
   33.6108   29.0682   35.6514 O   0  0  0  0  0  0  0  0  0  0  0  0
   34.1126   28.5528   33.3196 O   0  0  0  0  0  0  0  0  0  0  0  0
   33.1183   31.0271   33.8732 C   0  0  0  0  0  0  0  0  0  0  0  0
   33.1470   31.3551   32.3900 C   0  0  0  0  0  0  0  0  0  0  0  0
   34.4724   31.9933   32.4710 N   0  0  0  0  0  0  0  0  0  0  0  0
   35.4943   31.2315   31.7159 C   0  0  0  0  0  0  0  0  0  0  0  0
   36.7439   32.0875   31.4531 C   0  0  0  0  0  0  0  0  0  0  0  0
   37.5794   32.3829   32.7035 C   0  0  0  0  0  0  0  0  0  0  0  0
   37.8513   31.2154   33.3947 F   0  0  0  0  0  0  0  0  0  0  0  0
   38.7768   32.9598   32.3213 F   0  0  0  0  0  0  0  0  0  0  0  0
   36.9147   33.2676   33.5321 F   0  0  0  0  0  0  0  0  0  0  0  0
   34.4825   31.6911   33.9147 C   0  0  0  0  0  0  0  0  0  0  0  0
  1  2  1  0
  2  3  2  0
  2  4  1  0
  4  5  2  0
  5  6  1  0
  6  7  2  0
  7  8  1  0
  8  9  2  0
  9 10  1  0
 10 11  2  0
 11 12  1  0
 12 13  2  0
 13 14  1  0
  9 15  1  0
 15 16  2  0
 15 17  2  0
 15 18  1  0
 18 19  1  0
 19 20  1  0
 20 21  1  0
 21 22  1  0
 22 23  1  0
 23 24  1  0
 23 25  1  0
 23 26  1  0
 20 27  1  0
 13  4  1  0
 27 18  1  0
 12  7  1  0
M  END
>  <AAScore>  (1) 
-4.968867678701582

>  <RootName>  (1) 
./4ZLY/04_DeltaGEst/trajectory_05/rank_01/lead_0325

$$$$
