confid_9
     RDKit          3D

 27 30  0  0  0  0  0  0  0  0999 V2000
   24.2000   26.2400   35.6900 N   0  0  0  0  0  0  0  0  0  0  0  0
   24.8500   26.2800   34.4800 C   0  0  0  0  0  0  0  0  0  0  0  0
   24.3100   25.7400   33.5400 O   0  0  0  0  0  0  0  0  0  0  0  0
   26.1800   26.9700   34.4700 C   0  0  0  0  0  0  0  0  0  0  0  0
   26.6500   27.6000   35.5500 N   0  0  0  0  0  0  0  0  0  0  0  0
   27.7900   28.2700   35.6200 N   0  0  0  0  0  0  0  0  0  0  0  0
   28.5400   28.3000   34.5100 C   0  0  0  0  0  0  0  0  0  0  0  0
   29.7700   28.9400   34.5600 C   0  0  0  0  0  0  0  0  0  0  0  0
   30.7000   28.8900   33.5000 C   0  0  0  0  0  0  0  0  0  0  0  0
   30.3700   28.1400   32.3700 C   0  0  0  0  0  0  0  0  0  0  0  0
   29.1200   27.5200   32.2800 C   0  0  0  0  0  0  0  0  0  0  0  0
   28.2100   27.6100   33.3300 C   0  0  0  0  0  0  0  0  0  0  0  0
   26.9700   26.9700   33.3100 C   0  0  0  0  0  0  0  0  0  0  0  0
   26.5300   26.2400   32.2200 N   0  0  0  0  0  0  0  0  0  0  0  0
   22.7677   26.2110   35.8380 C   0  0  0  0  0  0  0  0  0  0  0  0
   22.3018   25.4899   36.8325 N   0  0  0  0  0  0  0  0  0  0  0  0
   20.9618   25.2684   37.3045 C   0  0  0  0  0  0  0  0  0  0  0  0
   19.9629   26.1442   37.1482 C   0  0  0  0  0  0  0  0  0  0  0  0
   20.2849   27.4816   36.6011 C   0  0  0  0  0  0  0  0  0  0  0  0
   20.4952   27.3056   35.1602 N   0  0  0  0  0  0  0  0  0  0  0  0
   19.5482   26.3544   34.4897 C   0  0  0  0  0  0  0  0  0  0  0  0
   18.2889   26.0343   35.3522 C   0  0  0  0  0  0  0  0  0  0  0  0
   18.6834   25.6491   36.7235 N   0  0  0  0  0  0  0  0  0  0  0  0
   17.8545   24.7750   37.5790 C   0  0  0  0  0  0  0  0  0  0  0  0
   16.3858   25.2483   37.6013 C   0  0  0  0  0  0  0  0  0  0  0  0
   17.9423   23.3084   37.1030 C   0  0  0  0  0  0  0  0  0  0  0  0
   21.9237   27.0542   34.8466 C   0  0  0  0  0  0  0  0  0  0  0  0
  1  2  1  0
  2  3  2  0
  2  4  1  0
  4  5  2  0
  5  6  1  0
  6  7  2  0
  7  8  1  0
  8  9  2  0
  9 10  1  0
 10 11  2  0
 11 12  1  0
 12 13  2  0
 13 14  1  0
  1 15  1  0
 15 16  2  0
 16 17  1  0
 17 18  2  0
 18 19  1  0
 19 20  1  0
 20 21  1  0
 21 22  1  0
 22 23  1  0
 23 24  1  0
 24 25  1  0
 24 26  1  0
 20 27  1  0
 13  4  1  0
 27 15  1  0
 12  7  1  0
 23 18  1  0
M  END
>  <AAScore>  (1) 
1908.9738023681168

>  <RootName>  (1) 
./4ZLY/04_DeltaGEst/trajectory_04/rank_00/lead_0469

$$$$
