confid_11
     RDKit          3D

 28 31  0  0  0  0  0  0  0  0999 V2000
   25.3300   26.2600   34.7600 N   0  0  0  0  0  0  0  0  0  0  0  0
   26.1200   25.9200   33.6900 C   0  0  0  0  0  0  0  0  0  0  0  0
   25.6300   25.1100   32.9400 O   0  0  0  0  0  0  0  0  0  0  0  0
   27.5200   26.3800   33.4600 C   0  0  0  0  0  0  0  0  0  0  0  0
   28.1600   26.6300   34.6100 N   0  0  0  0  0  0  0  0  0  0  0  0
   29.4800   26.8500   34.5700 N   0  0  0  0  0  0  0  0  0  0  0  0
   30.1900   26.7800   33.4400 C   0  0  0  0  0  0  0  0  0  0  0  0
   31.5600   27.0500   33.5000 C   0  0  0  0  0  0  0  0  0  0  0  0
   32.2700   27.2400   32.3100 C   0  0  0  0  0  0  0  0  0  0  0  0
   31.6100   27.2500   31.0800 C   0  0  0  0  0  0  0  0  0  0  0  0
   30.2700   26.8700   31.0600 C   0  0  0  0  0  0  0  0  0  0  0  0
   29.5100   26.6900   32.2300 C   0  0  0  0  0  0  0  0  0  0  0  0
   28.1400   26.4100   32.2000 C   0  0  0  0  0  0  0  0  0  0  0  0
   27.4300   26.1300   31.0500 N   0  0  0  0  0  0  0  0  0  0  0  0
   26.5156   27.1327   30.4960 C   0  0  0  0  0  0  0  0  0  0  0  0
   26.6394   27.1630   28.9702 C   0  0  0  0  0  0  0  0  0  0  0  0
   26.5767   25.8102   28.3868 N   0  0  0  0  0  0  0  0  0  0  0  0
   26.3583   25.6402   26.9673 C   0  0  0  0  0  0  0  0  0  0  0  0
   26.6749   26.6553   26.0490 C   0  0  0  0  0  0  0  0  0  0  0  0
   26.4405   26.4318   24.6932 C   0  0  0  0  0  0  0  0  0  0  0  0
   25.9170   25.2504   24.2798 N   0  0  0  0  0  0  0  0  0  0  0  0
   25.6134   24.2695   25.1720 C   0  0  0  0  0  0  0  0  0  0  0  0
   25.0356   22.9621   24.7008 C   0  0  0  0  0  0  0  0  0  0  0  0
   26.0198   22.2420   23.7739 C   0  0  0  0  0  0  0  0  0  0  0  0
   23.6903   23.1878   24.0041 C   0  0  0  0  0  0  0  0  0  0  0  0
   25.8362   24.4727   26.4979 N   0  0  0  0  0  0  0  0  0  0  0  0
   26.5694   24.6322   29.2698 C   0  0  0  0  0  0  0  0  0  0  0  0
   27.5677   24.8105   30.4189 C   0  0  0  0  0  0  0  0  0  0  0  0
  1  2  1  0
  2  3  2  0
  2  4  1  0
  4  5  2  0
  5  6  1  0
  6  7  2  0
  7  8  1  0
  8  9  2  0
  9 10  1  0
 10 11  2  0
 11 12  1  0
 12 13  2  0
 13 14  1  0
 14 15  1  0
 15 16  1  0
 16 17  1  0
 17 18  1  0
 18 19  2  0
 19 20  1  0
 20 21  2  0
 21 22  1  0
 22 23  1  0
 23 24  1  0
 23 25  1  0
 22 26  2  0
 17 27  1  0
 27 28  1  0
 13  4  1  0
 28 14  1  0
 12  7  1  0
 26 18  1  0
M  END
>  <AAScore>  (1) 
7.99934000636346

>  <RootName>  (1) 
./4ZLY/04_DeltaGEst/trajectory_03/rank_01/lead_0421

$$$$
