confid_16
     RDKit          3D

 28 31  0  0  0  0  0  0  0  0999 V2000
   24.2000   26.2400   35.6900 N   0  0  0  0  0  0  0  0  0  0  0  0
   24.8500   26.2800   34.4800 C   0  0  0  0  0  0  0  0  0  0  0  0
   24.3100   25.7400   33.5400 O   0  0  0  0  0  0  0  0  0  0  0  0
   26.1800   26.9700   34.4700 C   0  0  0  0  0  0  0  0  0  0  0  0
   26.6500   27.6000   35.5500 N   0  0  0  0  0  0  0  0  0  0  0  0
   27.7900   28.2700   35.6200 N   0  0  0  0  0  0  0  0  0  0  0  0
   28.5400   28.3000   34.5100 C   0  0  0  0  0  0  0  0  0  0  0  0
   29.7700   28.9400   34.5600 C   0  0  0  0  0  0  0  0  0  0  0  0
   30.7000   28.8900   33.5000 C   0  0  0  0  0  0  0  0  0  0  0  0
   30.3700   28.1400   32.3700 C   0  0  0  0  0  0  0  0  0  0  0  0
   29.1200   27.5200   32.2800 C   0  0  0  0  0  0  0  0  0  0  0  0
   28.2100   27.6100   33.3300 C   0  0  0  0  0  0  0  0  0  0  0  0
   26.9700   26.9700   33.3100 C   0  0  0  0  0  0  0  0  0  0  0  0
   26.5300   26.2400   32.2200 N   0  0  0  0  0  0  0  0  0  0  0  0
   23.0647   25.3971   35.9314 C   0  0  0  0  0  0  0  0  0  0  0  0
   23.0741   24.1313   35.6717 N   0  0  0  0  0  0  0  0  0  0  0  0
   21.8076   23.6239   36.0608 C   0  0  0  0  0  0  0  0  0  0  0  0
   21.0328   24.5765   36.5551 C   0  0  0  0  0  0  0  0  0  0  0  0
   19.6868   24.3082   37.1733 C   0  0  0  0  0  0  0  0  0  0  0  0
   19.1878   25.4841   37.9019 N   0  0  0  0  0  0  0  0  0  0  0  0
   18.1372   26.3005   37.2697 C   0  0  0  0  0  0  0  0  0  0  0  0
   18.5949   26.8782   35.9221 C   0  0  0  0  0  0  0  0  0  0  0  0
   19.9117   27.6699   36.0195 C   0  0  0  0  0  0  0  0  0  0  0  0
   21.1368   26.8956   35.4888 C   0  0  0  0  0  0  0  0  0  0  0  0
   21.7633   25.8932   36.4876 C   0  0  2  0  0  0  0  0  0  0  0  0
   19.7073   25.7768   39.2242 C   0  0  0  0  0  0  0  0  0  0  0  0
   20.6545   25.0879   39.6963 O   0  0  0  0  0  0  0  0  0  0  0  0
   19.1532   26.8886   40.0688 C   0  0  0  0  0  0  0  0  0  0  0  0
  1  2  1  0
  2  3  2  0
  2  4  1  0
  4  5  2  0
  5  6  1  0
  6  7  2  0
  7  8  1  0
  8  9  2  0
  9 10  1  0
 10 11  2  0
 11 12  1  0
 12 13  2  0
 13 14  1  0
  1 15  1  0
 15 16  2  0
 16 17  1  0
 17 18  2  0
 18 19  1  0
 19 20  1  0
 20 21  1  0
 21 22  1  0
 22 23  1  0
 23 24  1  0
 25 24  1  6
 20 26  1  0
 26 27  2  0
 26 28  1  0
 13  4  1  0
 25 15  1  0
 12  7  1  0
 25 18  1  0
M  END
>  <AAScore>  (1) 
605.4243654802688

>  <RootName>  (1) 
./4ZLY/04_DeltaGEst/trajectory_04/rank_00/lead_0430

$$$$
