confid_8
     RDKit          3D

 28 31  0  0  0  0  0  0  0  0999 V2000
   24.5500   26.3900   36.2500 N   0  0  0  0  0  0  0  0  0  0  0  0
   25.6000   26.1300   35.4000 C   0  0  0  0  0  0  0  0  0  0  0  0
   25.4300   25.4300   34.4200 O   0  0  0  0  0  0  0  0  0  0  0  0
   26.9800   26.6300   35.7100 C   0  0  0  0  0  0  0  0  0  0  0  0
   27.3200   26.8200   36.9800 N   0  0  0  0  0  0  0  0  0  0  0  0
   28.4700   27.4000   37.3100 N   0  0  0  0  0  0  0  0  0  0  0  0
   29.4000   27.6300   36.3700 C   0  0  0  0  0  0  0  0  0  0  0  0
   30.6600   28.0500   36.8000 C   0  0  0  0  0  0  0  0  0  0  0  0
   31.5700   28.3600   35.7800 C   0  0  0  0  0  0  0  0  0  0  0  0
   31.3700   28.1000   34.4300 C   0  0  0  0  0  0  0  0  0  0  0  0
   30.1200   27.5900   34.0500 C   0  0  0  0  0  0  0  0  0  0  0  0
   29.1500   27.3400   35.0300 C   0  0  0  0  0  0  0  0  0  0  0  0
   27.8800   26.8900   34.6600 C   0  0  0  0  0  0  0  0  0  0  0  0
   27.4800   26.6100   33.3700 N   0  0  0  0  0  0  0  0  0  0  0  0
   23.2191   25.8504   36.1180 C   0  0  0  0  0  0  0  0  0  0  0  0
   22.9256   24.9422   35.1502 N   0  0  0  0  0  0  0  0  0  0  0  0
   21.6891   24.4012   35.0206 C   0  0  0  0  0  0  0  0  0  0  0  0
   20.6533   24.7832   35.8840 C   0  0  0  0  0  0  0  0  0  0  0  0
   19.3296   24.0810   35.7995 C   0  0  0  0  0  0  0  0  0  0  0  0
   18.2416   24.9692   36.2055 N   0  0  0  0  0  0  0  0  0  0  0  0
   16.9282   24.8689   35.5630 C   0  0  0  0  0  0  0  0  0  0  0  0
   18.4180   25.8409   37.3347 C   0  0  0  0  0  0  0  0  0  0  0  0
   17.4013   26.3352   37.8983 O   0  0  0  0  0  0  0  0  0  0  0  0
   19.8054   26.1379   37.8914 C   0  0  0  0  0  0  0  0  0  0  0  0
   19.9962   25.3235   39.1823 C   0  0  0  0  0  0  0  0  0  0  0  0
   20.9038   25.7417   36.8910 C   0  0  0  0  0  0  0  0  0  0  0  0
   22.2172   26.2449   37.0146 C   0  0  0  0  0  0  0  0  0  0  0  0
   19.8770   27.6516   38.2193 C   0  0  0  0  0  0  0  0  0  0  0  0
  1  2  1  0
  2  3  2  0
  2  4  1  0
  4  5  2  0
  5  6  1  0
  6  7  2  0
  7  8  1  0
  8  9  2  0
  9 10  1  0
 10 11  2  0
 11 12  1  0
 12 13  2  0
 13 14  1  0
  1 15  1  0
 15 16  2  0
 16 17  1  0
 17 18  2  0
 18 19  1  0
 19 20  1  0
 20 21  1  0
 20 22  1  0
 22 23  2  0
 22 24  1  0
 24 25  1  0
 24 26  1  0
 26 27  2  0
 24 28  1  0
 13  4  1  0
 27 15  1  0
 12  7  1  0
 26 18  1  0
M  END
>  <AAScore>  (1) 
3687.128888116904

>  <RootName>  (1) 
./4ZLY/04_DeltaGEst/trajectory_01/rank_00/lead_0208

$$$$
