confid_13
     RDKit          3D

 28 31  0  0  0  0  0  0  0  0999 V2000
   24.5700   26.8800   35.5900 N   0  0  0  0  0  0  0  0  0  0  0  0
   25.5000   26.4000   34.6900 C   0  0  0  0  0  0  0  0  0  0  0  0
   25.1700   25.5200   33.9100 O   0  0  0  0  0  0  0  0  0  0  0  0
   26.8400   27.0200   34.7400 C   0  0  0  0  0  0  0  0  0  0  0  0
   27.3800   27.2800   35.9400 N   0  0  0  0  0  0  0  0  0  0  0  0
   28.6200   27.7400   36.0300 N   0  0  0  0  0  0  0  0  0  0  0  0
   29.3800   28.0000   34.9600 C   0  0  0  0  0  0  0  0  0  0  0  0
   30.6700   28.5000   35.1300 C   0  0  0  0  0  0  0  0  0  0  0  0
   31.5400   28.6100   34.0300 C   0  0  0  0  0  0  0  0  0  0  0  0
   31.0900   28.2200   32.7700 C   0  0  0  0  0  0  0  0  0  0  0  0
   29.8000   27.7000   32.6000 C   0  0  0  0  0  0  0  0  0  0  0  0
   28.9600   27.5500   33.7100 C   0  0  0  0  0  0  0  0  0  0  0  0
   27.6600   27.0300   33.5900 C   0  0  0  0  0  0  0  0  0  0  0  0
   27.1600   26.7400   32.3400 N   0  0  0  0  0  0  0  0  0  0  0  0
   23.3009   26.2653   35.8740 C   0  0  0  0  0  0  0  0  0  0  0  0
   22.9742   25.0539   35.3575 N   0  0  0  0  0  0  0  0  0  0  0  0
   21.7807   24.4715   35.6288 C   0  0  0  0  0  0  0  0  0  0  0  0
   20.8382   25.1083   36.4552 C   0  0  0  0  0  0  0  0  0  0  0  0
   19.5530   24.3397   36.7833 C   0  0  2  0  0  0  0  0  0  0  0  0
   18.2266   25.1389   36.8972 C   0  0  0  0  0  0  0  0  0  0  0  0
   17.9634   26.1651   35.7813 C   0  0  0  0  0  0  0  0  0  0  0  0
   18.9938   27.2206   35.6835 N   0  0  0  0  0  0  0  0  0  0  0  0
   18.6259   28.1740   34.6241 C   0  0  0  0  0  0  0  0  0  0  0  0
   19.2308   27.9291   36.9660 C   0  0  0  0  0  0  0  0  0  0  0  0
   20.2829   27.2048   37.8367 C   0  0  0  0  0  0  0  0  0  0  0  0
   21.2146   26.3618   37.0102 C   0  0  0  0  0  0  0  0  0  0  0  0
   22.4213   26.9004   36.6878 N   0  0  0  0  0  0  0  0  0  0  0  0
   19.7717   23.5031   38.0496 C   0  0  0  0  0  0  0  0  0  0  0  0
  1  2  1  0
  2  3  2  0
  2  4  1  0
  4  5  2  0
  5  6  1  0
  6  7  2  0
  7  8  1  0
  8  9  2  0
  9 10  1  0
 10 11  2  0
 11 12  1  0
 12 13  2  0
 13 14  1  0
  1 15  1  0
 15 16  2  0
 16 17  1  0
 17 18  2  0
 18 19  1  0
 19 20  1  0
 20 21  1  0
 21 22  1  0
 22 23  1  0
 22 24  1  0
 24 25  1  0
 25 26  1  0
 26 27  2  0
 19 28  1  1
 13  4  1  0
 27 15  1  0
 12  7  1  0
 26 18  1  0
M  END
>  <AAScore>  (1) 
38849.3986037224

>  <RootName>  (1) 
./4ZLY/04_DeltaGEst/trajectory_05/rank_00/lead_0482

$$$$
