confid_7
     RDKit          3D

 30 33  0  0  0  0  0  0  0  0999 V2000
   24.5500   26.3900   36.2500 N   0  0  0  0  0  0  0  0  0  0  0  0
   25.6000   26.1300   35.4000 C   0  0  0  0  0  0  0  0  0  0  0  0
   25.4300   25.4300   34.4200 O   0  0  0  0  0  0  0  0  0  0  0  0
   26.9800   26.6300   35.7100 C   0  0  0  0  0  0  0  0  0  0  0  0
   27.3200   26.8200   36.9800 N   0  0  0  0  0  0  0  0  0  0  0  0
   28.4700   27.4000   37.3100 N   0  0  0  0  0  0  0  0  0  0  0  0
   29.4000   27.6300   36.3700 C   0  0  0  0  0  0  0  0  0  0  0  0
   30.6600   28.0500   36.8000 C   0  0  0  0  0  0  0  0  0  0  0  0
   31.5700   28.3600   35.7800 C   0  0  0  0  0  0  0  0  0  0  0  0
   31.3700   28.1000   34.4300 C   0  0  0  0  0  0  0  0  0  0  0  0
   30.1200   27.5900   34.0500 C   0  0  0  0  0  0  0  0  0  0  0  0
   29.1500   27.3400   35.0300 C   0  0  0  0  0  0  0  0  0  0  0  0
   27.8800   26.8900   34.6600 C   0  0  0  0  0  0  0  0  0  0  0  0
   27.4800   26.6100   33.3700 N   0  0  0  0  0  0  0  0  0  0  0  0
   31.0050   28.3044   38.2139 C   0  0  0  0  0  0  0  0  0  0  0  0
   32.0490   27.7023   38.8936 C   0  0  0  0  0  0  0  0  0  0  0  0
   31.9947   28.1933   40.1832 C   0  0  0  0  0  0  0  0  0  0  0  0
   32.7824   27.6989   41.3526 C   0  0  0  0  0  0  0  0  0  0  0  0
   31.9193   26.8738   42.2077 N   0  0  0  0  0  0  0  0  0  0  0  0
   30.5719   27.2813   42.5657 C   0  0  0  0  0  0  0  0  0  0  0  0
   29.7395   26.3989   42.9121 O   0  0  0  0  0  0  0  0  0  0  0  0
   30.1150   28.7285   42.6489 C   0  0  0  0  0  0  0  0  0  0  0  0
   30.6237   29.7162   41.5785 C   0  0  0  0  0  0  0  0  0  0  0  0
   30.9690   29.0513   40.3207 N   0  0  0  0  0  0  0  0  0  0  0  0
   30.3636   29.1481   39.1159 C   0  0  0  0  0  0  0  0  0  0  0  0
   29.1998   30.0493   38.8210 C   0  0  0  0  0  0  0  0  0  0  0  0
   32.3964   25.5410   42.6066 C   0  0  0  0  0  0  0  0  0  0  0  0
   31.9767   24.4812   41.5878 C   0  0  0  0  0  0  0  0  0  0  0  0
   32.5723   24.7300   40.3648 F   0  0  0  0  0  0  0  0  0  0  0  0
   32.3693   23.2322   42.0326 F   0  0  0  0  0  0  0  0  0  0  0  0
  1  2  1  0
  2  3  2  0
  2  4  1  0
  4  5  2  0
  5  6  1  0
  6  7  2  0
  7  8  1  0
  8  9  2  0
  9 10  1  0
 10 11  2  0
 11 12  1  0
 12 13  2  0
 13 14  1  0
  8 15  1  0
 15 16  1  0
 16 17  2  0
 17 18  1  0
 18 19  1  0
 19 20  1  0
 20 21  2  0
 20 22  1  0
 22 23  1  0
 23 24  1  0
 24 25  1  0
 25 26  1  0
 19 27  1  0
 27 28  1  0
 28 29  1  0
 28 30  1  0
 13  4  1  0
 25 15  2  0
 12  7  1  0
 24 17  1  0
M  END
>  <AAScore>  (1) 
43.76632706582396

>  <RootName>  (1) 
./4ZLY/04_DeltaGEst/trajectory_01/rank_01/lead_0436

$$$$
