confid_16
     RDKit          3D

 27 29  0  0  0  0  0  0  0  0999 V2000
   24.5500   26.3900   36.2500 N   0  0  0  0  0  0  0  0  0  0  0  0
   25.6000   26.1300   35.4000 C   0  0  0  0  0  0  0  0  0  0  0  0
   25.4300   25.4300   34.4200 O   0  0  0  0  0  0  0  0  0  0  0  0
   26.9800   26.6300   35.7100 C   0  0  0  0  0  0  0  0  0  0  0  0
   27.3200   26.8200   36.9800 N   0  0  0  0  0  0  0  0  0  0  0  0
   28.4700   27.4000   37.3100 N   0  0  0  0  0  0  0  0  0  0  0  0
   29.4000   27.6300   36.3700 C   0  0  0  0  0  0  0  0  0  0  0  0
   30.6600   28.0500   36.8000 C   0  0  0  0  0  0  0  0  0  0  0  0
   31.5700   28.3600   35.7800 C   0  0  0  0  0  0  0  0  0  0  0  0
   31.3700   28.1000   34.4300 C   0  0  0  0  0  0  0  0  0  0  0  0
   30.1200   27.5900   34.0500 C   0  0  0  0  0  0  0  0  0  0  0  0
   29.1500   27.3400   35.0300 C   0  0  0  0  0  0  0  0  0  0  0  0
   27.8800   26.8900   34.6600 C   0  0  0  0  0  0  0  0  0  0  0  0
   27.4800   26.6100   33.3700 N   0  0  0  0  0  0  0  0  0  0  0  0
   30.9665   28.3074   38.1791 N   0  0  0  0  0  0  0  0  0  0  0  0
   30.2917   29.3946   38.8994 C   0  0  0  0  0  0  0  0  0  0  0  0
   29.8199   28.8983   40.2718 C   0  0  0  0  0  0  0  0  0  0  0  0
   30.8278   28.0413   40.9135 N   0  0  0  0  0  0  0  0  0  0  0  0
   30.4858   27.3814   42.1443 C   0  0  0  0  0  0  0  0  0  0  0  0
   29.8795   28.0239   43.0439 O   0  0  0  0  0  0  0  0  0  0  0  0
   30.7071   25.9038   42.3295 C   0  0  0  0  0  0  0  0  0  0  0  0
   29.6261   25.0924   41.6145 C   0  0  0  0  0  0  0  0  0  0  0  0
   29.8448   23.7446   41.8327 F   0  0  0  0  0  0  0  0  0  0  0  0
   28.3754   25.4276   42.1030 F   0  0  0  0  0  0  0  0  0  0  0  0
   29.6642   25.3363   40.2529 F   0  0  0  0  0  0  0  0  0  0  0  0
   32.1599   27.9028   40.3099 C   0  0  0  0  0  0  0  0  0  0  0  0
   32.0191   27.5194   38.8340 C   0  0  0  0  0  0  0  0  0  0  0  0
  1  2  1  0
  2  3  2  0
  2  4  1  0
  4  5  2  0
  5  6  1  0
  6  7  2  0
  7  8  1  0
  8  9  2  0
  9 10  1  0
 10 11  2  0
 11 12  1  0
 12 13  2  0
 13 14  1  0
  8 15  1  0
 15 16  1  0
 16 17  1  0
 17 18  1  0
 18 19  1  0
 19 20  2  0
 19 21  1  0
 21 22  1  0
 22 23  1  0
 22 24  1  0
 22 25  1  0
 18 26  1  0
 26 27  1  0
 13  4  1  0
 27 15  1  0
 12  7  1  0
M  END
>  <AAScore>  (1) 
294.71082178702017

>  <RootName>  (1) 
./4ZLY/04_DeltaGEst/trajectory_01/rank_01/lead_0425

$$$$
