confid_11
     RDKit          3D

 30 33  0  0  0  0  0  0  0  0999 V2000
   24.6900   26.1200   35.5300 N   0  0  0  0  0  0  0  0  0  0  0  0
   25.6600   25.6700   34.6600 C   0  0  0  0  0  0  0  0  0  0  0  0
   25.2400   25.0100   33.7200 O   0  0  0  0  0  0  0  0  0  0  0  0
   27.0300   26.2200   34.8800 C   0  0  0  0  0  0  0  0  0  0  0  0
   27.3500   26.7300   36.0700 N   0  0  0  0  0  0  0  0  0  0  0  0
   28.5700   27.1800   36.3300 N   0  0  0  0  0  0  0  0  0  0  0  0
   29.5300   27.1100   35.3900 C   0  0  0  0  0  0  0  0  0  0  0  0
   30.8300   27.5700   35.6500 C   0  0  0  0  0  0  0  0  0  0  0  0
   31.8500   27.5400   34.6900 C   0  0  0  0  0  0  0  0  0  0  0  0
   31.5100   27.1200   33.4000 C   0  0  0  0  0  0  0  0  0  0  0  0
   30.2200   26.6300   33.1100 C   0  0  0  0  0  0  0  0  0  0  0  0
   29.2400   26.6600   34.1000 C   0  0  0  0  0  0  0  0  0  0  0  0
   27.9300   26.2600   33.8100 C   0  0  0  0  0  0  0  0  0  0  0  0
   27.5200   25.7100   32.6100 N   0  0  0  0  0  0  0  0  0  0  0  0
   31.1752   28.0718   37.0019 C   0  0  0  0  0  0  0  0  0  0  0  0
   31.0795   27.2092   38.1036 C   0  0  0  0  0  0  0  0  0  0  0  0
   31.3809   27.6600   39.3953 C   0  0  0  0  0  0  0  0  0  0  0  0
   31.2154   26.7328   40.5757 C   0  0  0  0  0  0  0  0  0  0  0  0
   29.9825   27.0800   41.4311 C   0  0  0  0  0  0  0  0  0  0  0  0
   29.6862   28.5241   41.4873 N   0  0  0  0  0  0  0  0  0  0  0  0
   30.7128   29.4927   41.7790 C   0  0  0  0  0  0  0  0  0  0  0  0
   30.5278   30.3406   42.6929 O   0  0  0  0  0  0  0  0  0  0  0  0
   31.9923   29.5359   40.9896 C   0  0  0  0  0  0  0  0  0  0  0  0
   31.7749   29.0007   39.5921 C   0  0  0  0  0  0  0  0  0  0  0  0
   31.8786   29.8608   38.4878 C   0  0  0  0  0  0  0  0  0  0  0  0
   31.5814   29.4064   37.1892 C   0  0  0  0  0  0  0  0  0  0  0  0
   31.6583   30.2548   36.0715 O   0  0  0  0  0  0  0  0  0  0  0  0
   32.0452   31.6240   36.1192 C   0  0  0  0  0  0  0  0  0  0  0  0
   28.3157   28.9983   41.2586 C   0  0  0  0  0  0  0  0  0  0  0  0
   28.1889   29.5890   39.8582 C   0  0  0  0  0  0  0  0  0  0  0  0
  1  2  1  0
  2  3  2  0
  2  4  1  0
  4  5  2  0
  5  6  1  0
  6  7  2  0
  7  8  1  0
  8  9  2  0
  9 10  1  0
 10 11  2  0
 11 12  1  0
 12 13  2  0
 13 14  1  0
  8 15  1  0
 15 16  2  0
 16 17  1  0
 17 18  1  0
 18 19  1  0
 19 20  1  0
 20 21  1  0
 21 22  2  0
 21 23  1  0
 23 24  1  0
 24 25  1  0
 25 26  2  0
 26 27  1  0
 27 28  1  0
 20 29  1  0
 29 30  1  0
 13  4  1  0
 26 15  1  0
 12  7  1  0
 24 17  2  0
M  END
>  <AAScore>  (1) 
-2.7950582457131143

>  <RootName>  (1) 
./4ZLY/04_DeltaGEst/trajectory_02/rank_01/lead_0082

$$$$
