confid_4
     RDKit          3D

 28 31  0  0  0  0  0  0  0  0999 V2000
   24.2000   26.2400   35.6900 N   0  0  0  0  0  0  0  0  0  0  0  0
   24.8500   26.2800   34.4800 C   0  0  0  0  0  0  0  0  0  0  0  0
   24.3100   25.7400   33.5400 O   0  0  0  0  0  0  0  0  0  0  0  0
   26.1800   26.9700   34.4700 C   0  0  0  0  0  0  0  0  0  0  0  0
   26.6500   27.6000   35.5500 N   0  0  0  0  0  0  0  0  0  0  0  0
   27.7900   28.2700   35.6200 N   0  0  0  0  0  0  0  0  0  0  0  0
   28.5400   28.3000   34.5100 C   0  0  0  0  0  0  0  0  0  0  0  0
   29.7700   28.9400   34.5600 C   0  0  0  0  0  0  0  0  0  0  0  0
   30.7000   28.8900   33.5000 C   0  0  0  0  0  0  0  0  0  0  0  0
   30.3700   28.1400   32.3700 C   0  0  0  0  0  0  0  0  0  0  0  0
   29.1200   27.5200   32.2800 C   0  0  0  0  0  0  0  0  0  0  0  0
   28.2100   27.6100   33.3300 C   0  0  0  0  0  0  0  0  0  0  0  0
   26.9700   26.9700   33.3100 C   0  0  0  0  0  0  0  0  0  0  0  0
   26.5300   26.2400   32.2200 N   0  0  0  0  0  0  0  0  0  0  0  0
   22.7748   26.3436   35.8280 C   0  0  0  0  0  0  0  0  0  0  0  0
   22.0970   25.6401   36.7591 N   0  0  0  0  0  0  0  0  0  0  0  0
   20.8163   26.0187   36.5907 C   0  0  0  0  0  0  0  0  0  0  0  0
   20.7431   26.9450   35.5740 C   0  0  0  0  0  0  0  0  0  0  0  0
   19.4958   27.6278   35.1079 C   0  0  0  0  0  0  0  0  0  0  0  0
   19.4854   27.6943   33.6953 O   0  0  0  0  0  0  0  0  0  0  0  0
   20.0643   28.8874   33.1679 C   0  0  2  0  0  0  0  0  0  0  0  0
   19.0608   30.0609   33.2880 C   0  0  0  0  0  0  0  0  0  0  0  0
   20.3173   28.6258   31.6632 C   0  0  0  0  0  0  0  0  0  0  0  0
   19.0978   28.3334   31.0005 O   0  0  0  0  0  0  0  0  0  0  0  0
   19.3710   27.7426   29.7481 C   0  0  0  0  0  0  0  0  0  0  0  0
   21.4144   29.2886   33.8557 C   0  0  0  0  0  0  0  0  0  0  0  0
   22.4054   28.1276   34.0626 C   0  0  0  0  0  0  0  0  0  0  0  0
   21.9868   27.1824   35.1098 N   0  0  0  0  0  0  0  0  0  0  0  0
  1  2  1  0
  2  3  2  0
  2  4  1  0
  4  5  2  0
  5  6  1  0
  6  7  2  0
  7  8  1  0
  8  9  2  0
  9 10  1  0
 10 11  2  0
 11 12  1  0
 12 13  2  0
 13 14  1  0
  1 15  1  0
 15 16  2  0
 16 17  1  0
 17 18  2  0
 18 19  1  0
 19 20  1  0
 20 21  1  0
 21 22  1  6
 21 23  1  0
 23 24  1  0
 24 25  1  0
 21 26  1  0
 26 27  1  0
 27 28  1  0
 13  4  1  0
 28 15  1  0
 12  7  1  0
 28 18  1  0
M  END
>  <AAScore>  (1) 
1809.2270188687935

>  <RootName>  (1) 
./4ZLY/04_DeltaGEst/trajectory_04/rank_00/lead_0225

$$$$
