confid_16
     RDKit          3D

 29 31  0  0  0  0  0  0  0  0999 V2000
   24.5700   26.8800   35.5900 N   0  0  0  0  0  0  0  0  0  0  0  0
   25.5000   26.4000   34.6900 C   0  0  0  0  0  0  0  0  0  0  0  0
   25.1700   25.5200   33.9100 O   0  0  0  0  0  0  0  0  0  0  0  0
   26.8400   27.0200   34.7400 C   0  0  0  0  0  0  0  0  0  0  0  0
   27.3800   27.2800   35.9400 N   0  0  0  0  0  0  0  0  0  0  0  0
   28.6200   27.7400   36.0300 N   0  0  0  0  0  0  0  0  0  0  0  0
   29.3800   28.0000   34.9600 C   0  0  0  0  0  0  0  0  0  0  0  0
   30.6700   28.5000   35.1300 C   0  0  0  0  0  0  0  0  0  0  0  0
   31.5400   28.6100   34.0300 C   0  0  0  0  0  0  0  0  0  0  0  0
   31.0900   28.2200   32.7700 C   0  0  0  0  0  0  0  0  0  0  0  0
   29.8000   27.7000   32.6000 C   0  0  0  0  0  0  0  0  0  0  0  0
   28.9600   27.5500   33.7100 C   0  0  0  0  0  0  0  0  0  0  0  0
   27.6600   27.0300   33.5900 C   0  0  0  0  0  0  0  0  0  0  0  0
   27.1600   26.7400   32.3400 N   0  0  0  0  0  0  0  0  0  0  0  0
   33.1548   29.3103   34.2238 S   0  0  0  0  0  6  0  0  0  0  0  0
   33.1696   30.1775   35.4528 O   0  0  0  0  0  0  0  0  0  0  0  0
   33.4284   30.1926   33.0380 O   0  0  0  0  0  0  0  0  0  0  0  0
   34.4327   28.1135   34.3297 N   0  0  0  0  0  0  0  0  0  0  0  0
   34.8841   27.7465   35.6841 C   0  0  0  0  0  0  0  0  0  0  0  0
   33.8046   27.0505   36.5232 C   0  0  0  0  0  0  0  0  0  0  0  0
   33.5087   25.6143   36.0901 C   0  0  0  0  0  0  0  0  0  0  0  0
   33.0654   25.5473   34.6779 N   0  0  0  0  0  0  0  0  0  0  0  0
   32.2817   24.3103   34.4418 C   0  0  0  0  0  0  0  0  0  0  0  0
   30.7981   24.5498   34.7667 C   0  0  0  0  0  0  0  0  0  0  0  0
   29.9476   23.2601   34.7070 C   0  0  0  0  0  0  0  0  0  0  0  0
   29.8084   22.7331   33.2700 C   0  0  0  0  0  0  0  0  0  0  0  0
   28.5558   23.5214   35.2983 C   0  0  0  0  0  0  0  0  0  0  0  0
   34.2327   25.6422   33.7668 C   0  0  0  0  0  0  0  0  0  0  0  0
   34.4362   27.0819   33.2752 C   0  0  0  0  0  0  0  0  0  0  0  0
  1  2  1  0
  2  3  2  0
  2  4  1  0
  4  5  2  0
  5  6  1  0
  6  7  2  0
  7  8  1  0
  8  9  2  0
  9 10  1  0
 10 11  2  0
 11 12  1  0
 12 13  2  0
 13 14  1  0
  9 15  1  0
 15 16  2  0
 15 17  2  0
 15 18  1  0
 18 19  1  0
 19 20  1  0
 20 21  1  0
 21 22  1  0
 22 23  1  0
 23 24  1  0
 24 25  1  0
 25 26  1  0
 25 27  1  0
 22 28  1  0
 28 29  1  0
 13  4  1  0
 29 18  1  0
 12  7  1  0
M  END
>  <AAScore>  (1) 
742.0048008404478

>  <RootName>  (1) 
./4ZLY/04_DeltaGEst/trajectory_05/rank_01/lead_0483

$$$$
