confid_1
     RDKit          3D

 27 30  0  0  0  0  0  0  0  0999 V2000
   24.2000   26.2400   35.6900 N   0  0  0  0  0  0  0  0  0  0  0  0
   24.8500   26.2800   34.4800 C   0  0  0  0  0  0  0  0  0  0  0  0
   24.3100   25.7400   33.5400 O   0  0  0  0  0  0  0  0  0  0  0  0
   26.1800   26.9700   34.4700 C   0  0  0  0  0  0  0  0  0  0  0  0
   26.6500   27.6000   35.5500 N   0  0  0  0  0  0  0  0  0  0  0  0
   27.7900   28.2700   35.6200 N   0  0  0  0  0  0  0  0  0  0  0  0
   28.5400   28.3000   34.5100 C   0  0  0  0  0  0  0  0  0  0  0  0
   29.7700   28.9400   34.5600 C   0  0  0  0  0  0  0  0  0  0  0  0
   30.7000   28.8900   33.5000 C   0  0  0  0  0  0  0  0  0  0  0  0
   30.3700   28.1400   32.3700 C   0  0  0  0  0  0  0  0  0  0  0  0
   29.1200   27.5200   32.2800 C   0  0  0  0  0  0  0  0  0  0  0  0
   28.2100   27.6100   33.3300 C   0  0  0  0  0  0  0  0  0  0  0  0
   26.9700   26.9700   33.3100 C   0  0  0  0  0  0  0  0  0  0  0  0
   26.5300   26.2400   32.2200 N   0  0  0  0  0  0  0  0  0  0  0  0
   30.1356   29.6917   35.7321 N   0  0  0  0  0  0  0  0  0  0  0  0
   31.3192   29.3230   36.5119 C   0  0  0  0  0  0  0  0  0  0  0  0
   32.3065   30.5049   36.5884 C   0  0  0  0  0  0  0  0  0  0  0  0
   31.6571   31.8454   36.5592 N   0  0  0  0  0  0  0  0  0  0  0  0
   31.8117   32.5214   35.2513 C   0  0  0  0  0  0  0  0  0  0  0  0
   33.1801   33.2049   35.1631 C   0  0  0  0  0  0  0  0  0  0  0  0
   33.3465   33.8781   33.8326 C   0  0  0  0  0  0  0  0  0  0  0  0
   33.8046   33.2088   32.6868 C   0  0  0  0  0  0  0  0  0  0  0  0
   33.8324   34.0076   31.5526 C   0  0  0  0  0  0  0  0  0  0  0  0
   33.2738   35.5349   31.9769 S   0  0  0  0  0  0  0  0  0  0  0  0
   32.9936   35.2033   33.6000 C   0  0  0  0  0  0  0  0  0  0  0  0
   30.2453   31.8074   36.9982 C   0  0  0  0  0  0  0  0  0  0  0  0
   29.3983   30.9102   36.0821 C   0  0  0  0  0  0  0  0  0  0  0  0
  1  2  1  0
  2  3  2  0
  2  4  1  0
  4  5  2  0
  5  6  1  0
  6  7  2  0
  7  8  1  0
  8  9  2  0
  9 10  1  0
 10 11  2  0
 11 12  1  0
 12 13  2  0
 13 14  1  0
  8 15  1  0
 15 16  1  0
 16 17  1  0
 17 18  1  0
 18 19  1  0
 19 20  1  0
 20 21  1  0
 21 22  1  0
 22 23  2  0
 23 24  1  0
 24 25  1  0
 18 26  1  0
 26 27  1  0
 13  4  1  0
 27 15  1  0
 12  7  1  0
 25 21  2  0
M  END
>  <AAScore>  (1) 
-7.33568316652

>  <RootName>  (1) 
./4ZLY/04_DeltaGEst/trajectory_04/rank_01/lead_0083

$$$$
