confid_13
     RDKit          3D

 28 31  0  0  0  0  0  0  0  0999 V2000
   24.5500   26.3900   36.2500 N   0  0  0  0  0  0  0  0  0  0  0  0
   25.6000   26.1300   35.4000 C   0  0  0  0  0  0  0  0  0  0  0  0
   25.4300   25.4300   34.4200 O   0  0  0  0  0  0  0  0  0  0  0  0
   26.9800   26.6300   35.7100 C   0  0  0  0  0  0  0  0  0  0  0  0
   27.3200   26.8200   36.9800 N   0  0  0  0  0  0  0  0  0  0  0  0
   28.4700   27.4000   37.3100 N   0  0  0  0  0  0  0  0  0  0  0  0
   29.4000   27.6300   36.3700 C   0  0  0  0  0  0  0  0  0  0  0  0
   30.6600   28.0500   36.8000 C   0  0  0  0  0  0  0  0  0  0  0  0
   31.5700   28.3600   35.7800 C   0  0  0  0  0  0  0  0  0  0  0  0
   31.3700   28.1000   34.4300 C   0  0  0  0  0  0  0  0  0  0  0  0
   30.1200   27.5900   34.0500 C   0  0  0  0  0  0  0  0  0  0  0  0
   29.1500   27.3400   35.0300 C   0  0  0  0  0  0  0  0  0  0  0  0
   27.8800   26.8900   34.6600 C   0  0  0  0  0  0  0  0  0  0  0  0
   27.4800   26.6100   33.3700 N   0  0  0  0  0  0  0  0  0  0  0  0
   23.1684   25.9272   36.0410 C   0  0  0  0  0  0  0  0  0  0  0  0
   22.5502   26.6019   34.8019 C   0  0  0  0  0  0  0  0  0  0  0  0
   21.1587   26.0255   34.4745 C   0  0  0  0  0  0  0  0  0  0  0  0
   21.0609   24.5401   34.5960 N   0  0  0  0  0  0  0  0  0  0  0  0
   20.2834   23.9653   33.4718 C   0  0  0  0  0  0  0  0  0  0  0  0
   19.7825   22.5794   33.8120 C   0  0  0  0  0  0  0  0  0  0  0  0
   18.7450   22.3970   34.7506 C   0  0  0  0  0  0  0  0  0  0  0  0
   18.1444   23.5047   35.3524 O   0  0  0  0  0  0  0  0  0  0  0  0
   18.3144   21.0980   35.0751 C   0  0  0  0  0  0  0  0  0  0  0  0
   18.9069   19.9871   34.4690 C   0  0  0  0  0  0  0  0  0  0  0  0
   19.9386   20.1654   33.5413 C   0  0  0  0  0  0  0  0  0  0  0  0
   20.3786   21.4544   33.2153 C   0  0  0  0  0  0  0  0  0  0  0  0
   22.3735   23.8768   34.7321 C   0  0  0  0  0  0  0  0  0  0  0  0
   23.0846   24.3805   35.9922 C   0  0  0  0  0  0  0  0  0  0  0  0
  1  2  1  0
  2  3  2  0
  2  4  1  0
  4  5  2  0
  5  6  1  0
  6  7  2  0
  7  8  1  0
  8  9  2  0
  9 10  1  0
 10 11  2  0
 11 12  1  0
 12 13  2  0
 13 14  1  0
  1 15  1  0
 15 16  1  0
 16 17  1  0
 17 18  1  0
 18 19  1  0
 19 20  1  0
 20 21  2  0
 21 22  1  0
 21 23  1  0
 23 24  2  0
 24 25  1  0
 25 26  2  0
 18 27  1  0
 27 28  1  0
 13  4  1  0
 28 15  1  0
 12  7  1  0
 26 20  1  0
M  END
>  <AAScore>  (1) 
667.1929208589362

>  <RootName>  (1) 
./4ZLY/04_DeltaGEst/trajectory_01/rank_00/lead_0402

$$$$
