confid_2
     RDKit          3D

 28 31  0  0  0  0  0  0  0  0999 V2000
   25.3300   26.2600   34.7600 N   0  0  0  0  0  0  0  0  0  0  0  0
   26.1200   25.9200   33.6900 C   0  0  0  0  0  0  0  0  0  0  0  0
   25.6300   25.1100   32.9400 O   0  0  0  0  0  0  0  0  0  0  0  0
   27.5200   26.3800   33.4600 C   0  0  0  0  0  0  0  0  0  0  0  0
   28.1600   26.6300   34.6100 N   0  0  0  0  0  0  0  0  0  0  0  0
   29.4800   26.8500   34.5700 N   0  0  0  0  0  0  0  0  0  0  0  0
   30.1900   26.7800   33.4400 C   0  0  0  0  0  0  0  0  0  0  0  0
   31.5600   27.0500   33.5000 C   0  0  0  0  0  0  0  0  0  0  0  0
   32.2700   27.2400   32.3100 C   0  0  0  0  0  0  0  0  0  0  0  0
   31.6100   27.2500   31.0800 C   0  0  0  0  0  0  0  0  0  0  0  0
   30.2700   26.8700   31.0600 C   0  0  0  0  0  0  0  0  0  0  0  0
   29.5100   26.6900   32.2300 C   0  0  0  0  0  0  0  0  0  0  0  0
   28.1400   26.4100   32.2000 C   0  0  0  0  0  0  0  0  0  0  0  0
   27.4300   26.1300   31.0500 N   0  0  0  0  0  0  0  0  0  0  0  0
   26.5563   27.1539   30.4676 C   0  0  0  0  0  0  0  0  0  0  0  0
   26.8551   27.2965   28.9706 C   0  0  0  0  0  0  0  0  0  0  0  0
   27.0061   25.9848   28.3101 N   0  0  0  0  0  0  0  0  0  0  0  0
   27.4420   25.9046   26.9325 C   0  0  0  0  0  0  0  0  0  0  0  0
   27.4881   24.7898   26.3443 O   0  0  0  0  0  0  0  0  0  0  0  0
   27.9221   27.0937   26.2052 C   0  0  0  0  0  0  0  0  0  0  0  0
   27.0410   28.1291   25.8544 C   0  0  0  0  0  0  0  0  0  0  0  0
   27.5190   29.2608   25.1843 C   0  0  0  0  0  0  0  0  0  0  0  0
   28.8752   29.3601   24.8545 C   0  0  0  0  0  0  0  0  0  0  0  0
   29.3399   30.4663   24.2214 F   0  0  0  0  0  0  0  0  0  0  0  0
   29.7527   28.3190   25.1798 C   0  0  0  0  0  0  0  0  0  0  0  0
   29.2778   27.1861   25.8488 C   0  0  0  0  0  0  0  0  0  0  0  0
   26.7783   24.7580   29.0931 C   0  0  0  0  0  0  0  0  0  0  0  0
   27.5806   24.8206   30.3982 C   0  0  0  0  0  0  0  0  0  0  0  0
  1  2  1  0
  2  3  2  0
  2  4  1  0
  4  5  2  0
  5  6  1  0
  6  7  2  0
  7  8  1  0
  8  9  2  0
  9 10  1  0
 10 11  2  0
 11 12  1  0
 12 13  2  0
 13 14  1  0
 14 15  1  0
 15 16  1  0
 16 17  1  0
 17 18  1  0
 18 19  2  0
 18 20  1  0
 20 21  2  0
 21 22  1  0
 22 23  2  0
 23 24  1  0
 23 25  1  0
 25 26  2  0
 17 27  1  0
 27 28  1  0
 13  4  1  0
 28 14  1  0
 12  7  1  0
 26 20  1  0
M  END
>  <AAScore>  (1) 
-3.4646631017462988

>  <RootName>  (1) 
./4ZLY/04_DeltaGEst/trajectory_03/rank_01/lead_0332

$$$$
