confid_14
     RDKit          3D

 28 31  0  0  0  0  0  0  0  0999 V2000
   24.4800   26.1000   36.1300 N   0  0  0  0  0  0  0  0  0  0  0  0
   25.2500   26.2500   34.9900 C   0  0  0  0  0  0  0  0  0  0  0  0
   24.7400   25.7600   33.9900 O   0  0  0  0  0  0  0  0  0  0  0  0
   26.5900   26.8900   34.9600 C   0  0  0  0  0  0  0  0  0  0  0  0
   27.0600   27.2400   36.1600 N   0  0  0  0  0  0  0  0  0  0  0  0
   28.3000   27.7100   36.2400 N   0  0  0  0  0  0  0  0  0  0  0  0
   29.0500   27.9600   35.1500 C   0  0  0  0  0  0  0  0  0  0  0  0
   30.3400   28.4900   35.2600 C   0  0  0  0  0  0  0  0  0  0  0  0
   31.1100   28.8200   34.1400 C   0  0  0  0  0  0  0  0  0  0  0  0
   30.5200   28.6700   32.8800 C   0  0  0  0  0  0  0  0  0  0  0  0
   29.2900   28.0200   32.7700 C   0  0  0  0  0  0  0  0  0  0  0  0
   28.5200   27.7100   33.8900 C   0  0  0  0  0  0  0  0  0  0  0  0
   27.2700   27.0800   33.7600 C   0  0  0  0  0  0  0  0  0  0  0  0
   26.7500   26.8800   32.4900 N   0  0  0  0  0  0  0  0  0  0  0  0
   23.3152   25.2653   36.2232 C   0  0  0  0  0  0  0  0  0  0  0  0
   22.1367   25.7345   36.6842 N   0  0  0  0  0  0  0  0  0  0  0  0
   21.3270   24.6581   36.6786 C   0  0  0  0  0  0  0  0  0  0  0  0
   22.0299   23.5571   36.2369 C   0  0  0  0  0  0  0  0  0  0  0  0
   21.4604   22.1752   36.0682 C   0  0  0  0  0  0  0  0  0  0  0  0
   21.0659   21.9558   34.6588 N   0  0  0  0  0  0  0  0  0  0  0  0
   19.7230   22.5055   34.4009 C   0  0  0  0  0  0  0  0  0  0  0  0
   21.1315   20.5249   34.2809 C   0  0  0  0  0  0  0  0  0  0  0  0
   22.4534   20.2394   33.5699 C   0  0  0  0  0  0  0  0  0  0  0  0
   23.5299   20.3995   34.4779 O   0  0  0  0  0  0  0  0  0  0  0  0
   24.5895   21.1452   33.9074 C   0  0  0  0  0  0  0  0  0  0  0  0
   24.3688   22.6536   34.1009 C   0  0  0  0  0  0  0  0  0  0  0  0
   24.4248   23.0710   35.5852 C   0  0  0  0  0  0  0  0  0  0  0  0
   23.2939   23.9380   35.9465 N   0  0  0  0  0  0  0  0  0  0  0  0
  1  2  1  0
  2  3  2  0
  2  4  1  0
  4  5  2  0
  5  6  1  0
  6  7  2  0
  7  8  1  0
  8  9  2  0
  9 10  1  0
 10 11  2  0
 11 12  1  0
 12 13  2  0
 13 14  1  0
  1 15  1  0
 15 16  2  0
 16 17  1  0
 17 18  2  0
 18 19  1  0
 19 20  1  0
 20 21  1  0
 20 22  1  0
 22 23  1  0
 23 24  1  0
 24 25  1  0
 25 26  1  0
 26 27  1  0
 27 28  1  0
 13  4  1  0
 28 15  1  0
 12  7  1  0
 28 18  1  0
M  END
>  <AAScore>  (1) 
1838.7979593775444

>  <RootName>  (1) 
./4ZLY/04_DeltaGEst/trajectory_00/rank_00/lead_0188

$$$$
