confid_6
     RDKit          3D

 28 31  0  0  0  0  0  0  0  0999 V2000
   24.2000   26.2400   35.6900 N   0  0  0  0  0  0  0  0  0  0  0  0
   24.8500   26.2800   34.4800 C   0  0  0  0  0  0  0  0  0  0  0  0
   24.3100   25.7400   33.5400 O   0  0  0  0  0  0  0  0  0  0  0  0
   26.1800   26.9700   34.4700 C   0  0  0  0  0  0  0  0  0  0  0  0
   26.6500   27.6000   35.5500 N   0  0  0  0  0  0  0  0  0  0  0  0
   27.7900   28.2700   35.6200 N   0  0  0  0  0  0  0  0  0  0  0  0
   28.5400   28.3000   34.5100 C   0  0  0  0  0  0  0  0  0  0  0  0
   29.7700   28.9400   34.5600 C   0  0  0  0  0  0  0  0  0  0  0  0
   30.7000   28.8900   33.5000 C   0  0  0  0  0  0  0  0  0  0  0  0
   30.3700   28.1400   32.3700 C   0  0  0  0  0  0  0  0  0  0  0  0
   29.1200   27.5200   32.2800 C   0  0  0  0  0  0  0  0  0  0  0  0
   28.2100   27.6100   33.3300 C   0  0  0  0  0  0  0  0  0  0  0  0
   26.9700   26.9700   33.3100 C   0  0  0  0  0  0  0  0  0  0  0  0
   26.5300   26.2400   32.2200 N   0  0  0  0  0  0  0  0  0  0  0  0
   30.1446   29.6653   35.7460 N   0  0  0  0  0  0  0  0  0  0  0  0
   31.2604   29.1758   36.5599 C   0  0  0  0  0  0  0  0  0  0  0  0
   30.8511   29.1659   38.0303 C   0  0  0  0  0  0  0  0  0  0  0  0
   30.2671   30.4593   38.4098 N   0  0  0  0  0  0  0  0  0  0  0  0
   30.3217   30.9033   39.8051 C   0  0  0  0  0  0  0  0  0  0  0  0
   28.9626   30.6819   40.4815 C   0  0  0  0  0  0  0  0  0  0  0  0
   28.7363   29.2864   41.0418 C   0  0  0  0  0  0  0  0  0  0  0  0
   29.0122   30.4490   41.9835 C   0  0  0  0  0  0  0  0  0  0  0  0
   29.5038   31.2246   37.4566 C   0  0  0  0  0  0  0  0  0  0  0  0
   29.4498   30.8634   36.1637 C   0  0  0  0  0  0  0  0  0  0  0  0
   28.6231   31.6723   35.1853 C   0  0  0  0  0  0  0  0  0  0  0  0
   28.5664   33.0032   35.5641 F   0  0  0  0  0  0  0  0  0  0  0  0
   27.3376   31.1674   35.1381 F   0  0  0  0  0  0  0  0  0  0  0  0
   29.1795   31.6167   33.9206 F   0  0  0  0  0  0  0  0  0  0  0  0
  1  2  1  0
  2  3  2  0
  2  4  1  0
  4  5  2  0
  5  6  1  0
  6  7  2  0
  7  8  1  0
  8  9  2  0
  9 10  1  0
 10 11  2  0
 11 12  1  0
 12 13  2  0
 13 14  1  0
  8 15  1  0
 15 16  1  0
 16 17  1  0
 17 18  1  0
 18 19  1  0
 19 20  1  0
 20 21  1  0
 21 22  1  0
 18 23  1  0
 23 24  2  0
 24 25  1  0
 25 26  1  0
 25 27  1  0
 25 28  1  0
 13  4  1  0
 24 15  1  0
 12  7  1  0
 22 20  1  0
M  END
>  <AAScore>  (1) 
-7.32253685989601

>  <RootName>  (1) 
./4ZLY/04_DeltaGEst/trajectory_04/rank_01/lead_0212

$$$$
