confid_17
     RDKit          3D

 27 30  0  0  0  0  0  0  0  0999 V2000
   24.4800   26.1000   36.1300 N   0  0  0  0  0  0  0  0  0  0  0  0
   25.2500   26.2500   34.9900 C   0  0  0  0  0  0  0  0  0  0  0  0
   24.7400   25.7600   33.9900 O   0  0  0  0  0  0  0  0  0  0  0  0
   26.5900   26.8900   34.9600 C   0  0  0  0  0  0  0  0  0  0  0  0
   27.0600   27.2400   36.1600 N   0  0  0  0  0  0  0  0  0  0  0  0
   28.3000   27.7100   36.2400 N   0  0  0  0  0  0  0  0  0  0  0  0
   29.0500   27.9600   35.1500 C   0  0  0  0  0  0  0  0  0  0  0  0
   30.3400   28.4900   35.2600 C   0  0  0  0  0  0  0  0  0  0  0  0
   31.1100   28.8200   34.1400 C   0  0  0  0  0  0  0  0  0  0  0  0
   30.5200   28.6700   32.8800 C   0  0  0  0  0  0  0  0  0  0  0  0
   29.2900   28.0200   32.7700 C   0  0  0  0  0  0  0  0  0  0  0  0
   28.5200   27.7100   33.8900 C   0  0  0  0  0  0  0  0  0  0  0  0
   27.2700   27.0800   33.7600 C   0  0  0  0  0  0  0  0  0  0  0  0
   26.7500   26.8800   32.4900 N   0  0  0  0  0  0  0  0  0  0  0  0
   23.0428   26.0505   36.1505 C   0  0  0  0  0  0  0  0  0  0  0  0
   22.1785   26.4604   35.1611 C   0  0  0  0  0  0  0  0  0  0  0  0
   20.9020   26.3143   35.6800 C   0  0  0  0  0  0  0  0  0  0  0  0
   19.6742   26.5740   34.8313 C   0  0  0  0  0  0  0  0  0  0  0  0
   18.9901   27.8744   35.0763 N   0  0  0  0  0  0  0  0  0  0  0  0
   18.7486   28.2069   36.4999 C   0  0  0  0  0  0  0  0  0  0  0  0
   17.6854   27.3071   37.1641 C   0  0  0  0  0  0  0  0  0  0  0  0
   17.8061   25.9612   36.7586 O   0  0  0  0  0  0  0  0  0  0  0  0
   18.5716   25.1645   37.6419 C   0  0  0  0  0  0  0  0  0  0  0  0
   19.9588   25.7132   38.0356 C   0  0  0  0  0  0  0  0  0  0  0  0
   20.9639   25.8198   36.9563 N   0  0  0  0  0  0  0  0  0  0  0  0
   22.2810   25.6887   37.2352 C   0  0  0  0  0  0  0  0  0  0  0  0
   19.7315   28.9718   34.4288 C   0  0  0  0  0  0  0  0  0  0  0  0
  1  2  1  0
  2  3  2  0
  2  4  1  0
  4  5  2  0
  5  6  1  0
  6  7  2  0
  7  8  1  0
  8  9  2  0
  9 10  1  0
 10 11  2  0
 11 12  1  0
 12 13  2  0
 13 14  1  0
  1 15  1  0
 15 16  1  0
 16 17  2  0
 17 18  1  0
 18 19  1  0
 19 20  1  0
 20 21  1  0
 21 22  1  0
 22 23  1  0
 23 24  1  0
 24 25  1  0
 25 26  1  0
 19 27  1  0
 13  4  1  0
 26 15  2  0
 12  7  1  0
 25 17  1  0
M  END
>  <AAScore>  (1) 
107.3635031134595

>  <RootName>  (1) 
./4ZLY/04_DeltaGEst/trajectory_00/rank_00/lead_0222

$$$$
