confid_9
     RDKit          3D

 28 31  0  0  0  0  0  0  0  0999 V2000
   24.5500   26.3900   36.2500 N   0  0  0  0  0  0  0  0  0  0  0  0
   25.6000   26.1300   35.4000 C   0  0  0  0  0  0  0  0  0  0  0  0
   25.4300   25.4300   34.4200 O   0  0  0  0  0  0  0  0  0  0  0  0
   26.9800   26.6300   35.7100 C   0  0  0  0  0  0  0  0  0  0  0  0
   27.3200   26.8200   36.9800 N   0  0  0  0  0  0  0  0  0  0  0  0
   28.4700   27.4000   37.3100 N   0  0  0  0  0  0  0  0  0  0  0  0
   29.4000   27.6300   36.3700 C   0  0  0  0  0  0  0  0  0  0  0  0
   30.6600   28.0500   36.8000 C   0  0  0  0  0  0  0  0  0  0  0  0
   31.5700   28.3600   35.7800 C   0  0  0  0  0  0  0  0  0  0  0  0
   31.3700   28.1000   34.4300 C   0  0  0  0  0  0  0  0  0  0  0  0
   30.1200   27.5900   34.0500 C   0  0  0  0  0  0  0  0  0  0  0  0
   29.1500   27.3400   35.0300 C   0  0  0  0  0  0  0  0  0  0  0  0
   27.8800   26.8900   34.6600 C   0  0  0  0  0  0  0  0  0  0  0  0
   27.4800   26.6100   33.3700 N   0  0  0  0  0  0  0  0  0  0  0  0
   23.2447   25.7188   36.1397 C   0  0  0  0  0  0  0  0  0  0  0  0
   23.3499   24.2699   36.6397 C   0  0  0  0  0  0  0  0  0  0  0  0
   23.8024   24.2471   38.1057 C   0  0  0  0  0  0  0  0  0  0  0  0
   23.1287   25.2868   38.9055 N   0  0  0  0  0  0  0  0  0  0  0  0
   23.5016   25.4912   40.2875 C   0  0  0  0  0  0  0  0  0  0  0  0
   22.6901   26.0356   41.0851 O   0  0  0  0  0  0  0  0  0  0  0  0
   24.8424   25.0608   40.8180 C   0  0  0  0  0  0  0  0  0  0  0  0
   24.8935   23.5906   40.9454 N   0  0  0  0  0  0  0  0  0  0  0  0
   26.1641   23.1032   41.5113 C   0  0  1  0  0  0  0  0  0  0  0  0
   27.0977   24.1011   41.7673 F   0  0  0  0  0  0  0  0  0  0  0  0
   25.5052   22.6062   42.7833 C   0  0  0  0  0  0  0  0  0  0  0  0
   24.2173   23.1145   42.1630 C   0  0  0  0  0  0  0  0  0  0  0  0
   21.9329   25.9558   38.3647 C   0  0  0  0  0  0  0  0  0  0  0  0
   22.1633   26.4892   36.9352 C   0  0  0  0  0  0  0  0  0  0  0  0
  1  2  1  0
  2  3  2  0
  2  4  1  0
  4  5  2  0
  5  6  1  0
  6  7  2  0
  7  8  1  0
  8  9  2  0
  9 10  1  0
 10 11  2  0
 11 12  1  0
 12 13  2  0
 13 14  1  0
  1 15  1  0
 15 16  1  0
 16 17  1  0
 17 18  1  0
 18 19  1  0
 19 20  2  0
 19 21  1  0
 21 22  1  0
 22 23  1  0
 23 24  1  1
 23 25  1  0
 25 26  1  0
 18 27  1  0
 27 28  1  0
 13  4  1  0
 28 15  1  0
 12  7  1  0
 26 22  1  0
M  END
>  <AAScore>  (1) 
217.9605541858841

>  <RootName>  (1) 
./4ZLY/04_DeltaGEst/trajectory_01/rank_00/lead_0364

$$$$
