confid_9
     RDKit          3D

 25 26  0  0  0  0  0  0  0  0999 V2000
   24.5700   26.8800   35.5900 N   0  0  0  0  0  0  0  0  0  0  0  0
   25.5000   26.4000   34.6900 C   0  0  0  0  0  0  0  0  0  0  0  0
   25.1700   25.5200   33.9100 O   0  0  0  0  0  0  0  0  0  0  0  0
   26.8400   27.0200   34.7400 C   0  0  0  0  0  0  0  0  0  0  0  0
   27.3800   27.2800   35.9400 N   0  0  0  0  0  0  0  0  0  0  0  0
   28.6200   27.7400   36.0300 N   0  0  0  0  0  0  0  0  0  0  0  0
   29.3800   28.0000   34.9600 C   0  0  0  0  0  0  0  0  0  0  0  0
   30.6700   28.5000   35.1300 C   0  0  0  0  0  0  0  0  0  0  0  0
   31.5400   28.6100   34.0300 C   0  0  0  0  0  0  0  0  0  0  0  0
   31.0900   28.2200   32.7700 C   0  0  0  0  0  0  0  0  0  0  0  0
   29.8000   27.7000   32.6000 C   0  0  0  0  0  0  0  0  0  0  0  0
   28.9600   27.5500   33.7100 C   0  0  0  0  0  0  0  0  0  0  0  0
   27.6600   27.0300   33.5900 C   0  0  0  0  0  0  0  0  0  0  0  0
   27.1600   26.7400   32.3400 N   0  0  0  0  0  0  0  0  0  0  0  0
   33.1600   29.2673   34.2300 S   0  0  0  0  0  6  0  0  0  0  0  0
   34.1028   28.5510   33.3044 O   0  0  0  0  0  0  0  0  0  0  0  0
   33.6222   29.0591   35.6453 O   0  0  0  0  0  0  0  0  0  0  0  0
   33.1215   31.0155   33.8631 C   0  0  0  0  0  0  0  0  0  0  0  0
   34.3774   31.6690   34.2890 N   0  0  0  0  0  0  0  0  0  0  0  0
   35.5914   31.3938   33.4789 C   0  0  0  0  0  0  0  0  0  0  0  0
   35.3699   31.4054   31.9482 C   0  0  0  0  0  0  0  0  0  0  0  0
   36.6933   31.4061   31.1670 C   0  0  0  0  0  0  0  0  0  0  0  0
   37.3411   32.7901   31.1128 C   0  0  0  0  0  0  0  0  0  0  0  0
   34.2156   33.0801   34.7039 C   0  0  0  0  0  0  0  0  0  0  0  0
   33.9165   34.0315   33.5437 C   0  0  0  0  0  0  0  0  0  0  0  0
  1  2  1  0
  2  3  2  0
  2  4  1  0
  4  5  2  0
  5  6  1  0
  6  7  2  0
  7  8  1  0
  8  9  2  0
  9 10  1  0
 10 11  2  0
 11 12  1  0
 12 13  2  0
 13 14  1  0
  9 15  1  0
 15 16  2  0
 15 17  2  0
 15 18  1  0
 18 19  1  0
 19 20  1  0
 20 21  1  0
 21 22  1  0
 22 23  1  0
 19 24  1  0
 24 25  1  0
 13  4  1  0
 12  7  1  0
M  END
>  <AAScore>  (1) 
-5.272072415901952

>  <RootName>  (1) 
./4ZLY/04_DeltaGEst/trajectory_05/rank_01/lead_0300

$$$$
