confid_10
     RDKit          3D

 31 35  0  0  0  0  0  0  0  0999 V2000
   24.5700   26.8800   35.5900 N   0  0  0  0  0  0  0  0  0  0  0  0
   25.5000   26.4000   34.6900 C   0  0  0  0  0  0  0  0  0  0  0  0
   25.1700   25.5200   33.9100 O   0  0  0  0  0  0  0  0  0  0  0  0
   26.8400   27.0200   34.7400 C   0  0  0  0  0  0  0  0  0  0  0  0
   27.3800   27.2800   35.9400 N   0  0  0  0  0  0  0  0  0  0  0  0
   28.6200   27.7400   36.0300 N   0  0  0  0  0  0  0  0  0  0  0  0
   29.3800   28.0000   34.9600 C   0  0  0  0  0  0  0  0  0  0  0  0
   30.6700   28.5000   35.1300 C   0  0  0  0  0  0  0  0  0  0  0  0
   31.5400   28.6100   34.0300 C   0  0  0  0  0  0  0  0  0  0  0  0
   31.0900   28.2200   32.7700 C   0  0  0  0  0  0  0  0  0  0  0  0
   29.8000   27.7000   32.6000 C   0  0  0  0  0  0  0  0  0  0  0  0
   28.9600   27.5500   33.7100 C   0  0  0  0  0  0  0  0  0  0  0  0
   27.6600   27.0300   33.5900 C   0  0  0  0  0  0  0  0  0  0  0  0
   27.1600   26.7400   32.3400 N   0  0  0  0  0  0  0  0  0  0  0  0
   23.1834   26.4904   35.6482 C   0  0  0  0  0  0  0  0  0  0  0  0
   22.5439   26.5382   36.9055 N   0  0  0  0  0  0  0  0  0  0  0  0
   21.2224   26.2022   37.1596 C   0  0  0  0  0  0  0  0  0  0  0  0
   20.5786   25.8057   36.0408 C   0  0  0  0  0  0  0  0  0  0  0  0
   19.8540   25.3847   34.9187 C   0  0  2  0  0  0  0  0  0  0  0  0
   19.5920   23.8718   34.8995 C   0  0  0  0  0  0  0  0  0  0  0  0
   19.1464   23.4333   33.5586 N   0  0  0  0  0  0  0  0  0  0  0  0
   20.2979   23.2885   32.6473 C   0  0  0  0  0  0  0  0  0  0  0  0
   19.8292   22.8717   31.2479 C   0  0  0  0  0  0  0  0  0  0  0  0
   19.0365   21.6209   31.2741 N   0  0  0  0  0  0  0  0  0  0  0  0
   19.9241   20.4442   31.4063 C   0  0  0  0  0  0  0  0  0  0  0  0
   17.9173   21.6766   32.2694 C   0  0  0  0  0  0  0  0  0  0  0  0
   16.8341   22.6584   31.7577 C   0  0  0  0  0  0  0  0  0  0  0  0
   17.2256   20.2970   32.4268 C   0  0  0  0  0  0  0  0  0  0  0  0
   18.4284   22.1461   33.6600 C   0  0  0  0  0  0  0  0  0  0  0  0
   21.1906   25.7585   34.7189 C   0  0  0  0  0  0  0  0  0  0  0  0
   22.4723   26.1016   34.4430 C   0  0  0  0  0  0  0  0  0  0  0  0
  1  2  1  0
  2  3  2  0
  2  4  1  0
  4  5  2  0
  5  6  1  0
  6  7  2  0
  7  8  1  0
  8  9  2  0
  9 10  1  0
 10 11  2  0
 11 12  1  0
 12 13  2  0
 13 14  1  0
  1 15  1  0
 15 16  2  0
 16 17  1  0
 17 18  2  0
 18 19  1  0
 19 20  1  1
 20 21  1  0
 21 22  1  0
 22 23  1  0
 23 24  1  0
 24 25  1  0
 24 26  1  0
 26 27  1  0
 26 28  1  0
 26 29  1  0
 19 30  1  0
 30 31  2  0
 13  4  1  0
 31 15  1  0
 12  7  1  0
 30 18  1  0
 29 21  1  0
M  END
>  <AAScore>  (1) 
94.67903890044812

>  <RootName>  (1) 
./4ZLY/04_DeltaGEst/trajectory_05/rank_00/lead_0421

$$$$
