confid_2
     RDKit          3D

 26 29  0  0  0  0  0  0  0  0999 V2000
   24.6900   26.1200   35.5300 N   0  0  0  0  0  0  0  0  0  0  0  0
   25.6600   25.6700   34.6600 C   0  0  0  0  0  0  0  0  0  0  0  0
   25.2400   25.0100   33.7200 O   0  0  0  0  0  0  0  0  0  0  0  0
   27.0300   26.2200   34.8800 C   0  0  0  0  0  0  0  0  0  0  0  0
   27.3500   26.7300   36.0700 N   0  0  0  0  0  0  0  0  0  0  0  0
   28.5700   27.1800   36.3300 N   0  0  0  0  0  0  0  0  0  0  0  0
   29.5300   27.1100   35.3900 C   0  0  0  0  0  0  0  0  0  0  0  0
   30.8300   27.5700   35.6500 C   0  0  0  0  0  0  0  0  0  0  0  0
   31.8500   27.5400   34.6900 C   0  0  0  0  0  0  0  0  0  0  0  0
   31.5100   27.1200   33.4000 C   0  0  0  0  0  0  0  0  0  0  0  0
   30.2200   26.6300   33.1100 C   0  0  0  0  0  0  0  0  0  0  0  0
   29.2400   26.6600   34.1000 C   0  0  0  0  0  0  0  0  0  0  0  0
   27.9300   26.2600   33.8100 C   0  0  0  0  0  0  0  0  0  0  0  0
   27.5200   25.7100   32.6100 N   0  0  0  0  0  0  0  0  0  0  0  0
   31.1474   28.0674   36.9622 N   0  0  0  0  0  0  0  0  0  0  0  0
   32.0737   27.2924   37.7965 C   0  0  0  0  0  0  0  0  0  0  0  0
   31.7011   27.4291   39.2732 C   0  0  0  0  0  0  0  0  0  0  0  0
   31.7088   28.9014   39.6913 C   0  0  0  0  0  0  0  0  0  0  0  0
   30.8872   29.7498   38.7604 C   0  0  0  0  0  0  0  0  0  0  0  0
   30.4280   30.9540   39.1979 N   0  0  0  0  0  0  0  0  0  0  0  0
   29.7282   31.7949   38.3929 C   0  0  0  0  0  0  0  0  0  0  0  0
   29.4758   31.4424   37.0672 C   0  0  0  0  0  0  0  0  0  0  0  0
   28.7852   32.2800   36.2545 F   0  0  0  0  0  0  0  0  0  0  0  0
   29.9452   30.2217   36.5813 C   0  0  0  0  0  0  0  0  0  0  0  0
   30.6601   29.3509   37.4255 C   0  0  0  0  0  0  0  0  0  0  0  0
   29.2865   32.9803   38.8794 F   0  0  0  0  0  0  0  0  0  0  0  0
  1  2  1  0
  2  3  2  0
  2  4  1  0
  4  5  2  0
  5  6  1  0
  6  7  2  0
  7  8  1  0
  8  9  2  0
  9 10  1  0
 10 11  2  0
 11 12  1  0
 12 13  2  0
 13 14  1  0
  8 15  1  0
 15 16  1  0
 16 17  1  0
 17 18  1  0
 18 19  1  0
 19 20  2  0
 20 21  1  0
 21 22  2  0
 22 23  1  0
 22 24  1  0
 24 25  2  0
 21 26  1  0
 13  4  1  0
 25 15  1  0
 12  7  1  0
 25 19  1  0
M  END
>  <AAScore>  (1) 
-2.9538630746912244

>  <RootName>  (1) 
./4ZLY/04_DeltaGEst/trajectory_02/rank_01/lead_0282

$$$$
