confid_11
     RDKit          3D

 28 32  0  0  0  0  0  0  0  0999 V2000
   24.2000   26.2400   35.6900 N   0  0  0  0  0  0  0  0  0  0  0  0
   24.8500   26.2800   34.4800 C   0  0  0  0  0  0  0  0  0  0  0  0
   24.3100   25.7400   33.5400 O   0  0  0  0  0  0  0  0  0  0  0  0
   26.1800   26.9700   34.4700 C   0  0  0  0  0  0  0  0  0  0  0  0
   26.6500   27.6000   35.5500 N   0  0  0  0  0  0  0  0  0  0  0  0
   27.7900   28.2700   35.6200 N   0  0  0  0  0  0  0  0  0  0  0  0
   28.5400   28.3000   34.5100 C   0  0  0  0  0  0  0  0  0  0  0  0
   29.7700   28.9400   34.5600 C   0  0  0  0  0  0  0  0  0  0  0  0
   30.7000   28.8900   33.5000 C   0  0  0  0  0  0  0  0  0  0  0  0
   30.3700   28.1400   32.3700 C   0  0  0  0  0  0  0  0  0  0  0  0
   29.1200   27.5200   32.2800 C   0  0  0  0  0  0  0  0  0  0  0  0
   28.2100   27.6100   33.3300 C   0  0  0  0  0  0  0  0  0  0  0  0
   26.9700   26.9700   33.3100 C   0  0  0  0  0  0  0  0  0  0  0  0
   26.5300   26.2400   32.2200 N   0  0  0  0  0  0  0  0  0  0  0  0
   22.7801   26.0738   35.8488 C   0  0  0  0  0  0  0  0  0  0  0  0
   21.9432   26.1211   34.7768 N   0  0  0  0  0  0  0  0  0  0  0  0
   20.6018   25.9780   34.9240 C   0  0  0  0  0  0  0  0  0  0  0  0
   20.0507   25.7845   36.1966 C   0  0  0  0  0  0  0  0  0  0  0  0
   18.5522   25.6962   36.3823 C   0  0  1  0  0  0  0  0  0  0  0  0
   18.2434   25.0103   37.7293 C   0  0  0  0  0  0  0  0  0  0  0  0
   18.9730   25.6980   38.8114 N   0  0  0  0  0  0  0  0  0  0  0  0
   18.4980   25.2313   40.1225 C   0  0  0  0  0  0  0  0  0  0  0  0
   20.4249   25.4561   38.6851 C   0  0  0  0  0  0  0  0  0  0  0  0
   20.9273   25.7579   37.2968 C   0  0  0  0  0  0  0  0  0  0  0  0
   22.2647   25.8905   37.0932 N   0  0  0  0  0  0  0  0  0  0  0  0
   17.9485   27.1185   36.1931 C   0  0  0  0  0  0  0  0  0  0  0  0
   16.4321   27.1257   36.0340 C   0  0  0  0  0  0  0  0  0  0  0  0
   17.0642   27.7691   37.2558 C   0  0  0  0  0  0  0  0  0  0  0  0
  1  2  1  0
  2  3  2  0
  2  4  1  0
  4  5  2  0
  5  6  1  0
  6  7  2  0
  7  8  1  0
  8  9  2  0
  9 10  1  0
 10 11  2  0
 11 12  1  0
 12 13  2  0
 13 14  1  0
  1 15  1  0
 15 16  2  0
 16 17  1  0
 17 18  2  0
 18 19  1  0
 19 20  1  0
 20 21  1  0
 21 22  1  0
 21 23  1  0
 23 24  1  0
 24 25  2  0
 19 26  1  1
 26 27  1  0
 27 28  1  0
 13  4  1  0
 25 15  1  0
 28 26  1  0
 12  7  1  0
 24 18  1  0
M  END
>  <AAScore>  (1) 
630.1066136666451

>  <RootName>  (1) 
./4ZLY/04_DeltaGEst/trajectory_04/rank_00/lead_0097

$$$$
