confid_8
     RDKit          3D

 28 31  0  0  0  0  0  0  0  0999 V2000
   25.3300   26.2600   34.7600 N   0  0  0  0  0  0  0  0  0  0  0  0
   26.1200   25.9200   33.6900 C   0  0  0  0  0  0  0  0  0  0  0  0
   25.6300   25.1100   32.9400 O   0  0  0  0  0  0  0  0  0  0  0  0
   27.5200   26.3800   33.4600 C   0  0  0  0  0  0  0  0  0  0  0  0
   28.1600   26.6300   34.6100 N   0  0  0  0  0  0  0  0  0  0  0  0
   29.4800   26.8500   34.5700 N   0  0  0  0  0  0  0  0  0  0  0  0
   30.1900   26.7800   33.4400 C   0  0  0  0  0  0  0  0  0  0  0  0
   31.5600   27.0500   33.5000 C   0  0  0  0  0  0  0  0  0  0  0  0
   32.2700   27.2400   32.3100 C   0  0  0  0  0  0  0  0  0  0  0  0
   31.6100   27.2500   31.0800 C   0  0  0  0  0  0  0  0  0  0  0  0
   30.2700   26.8700   31.0600 C   0  0  0  0  0  0  0  0  0  0  0  0
   29.5100   26.6900   32.2300 C   0  0  0  0  0  0  0  0  0  0  0  0
   28.1400   26.4100   32.2000 C   0  0  0  0  0  0  0  0  0  0  0  0
   27.4300   26.1300   31.0500 N   0  0  0  0  0  0  0  0  0  0  0  0
   27.5665   24.8091   30.4211 C   0  0  0  0  0  0  0  0  0  0  0  0
   26.5572   24.6190   29.2828 C   0  0  0  0  0  0  0  0  0  0  0  0
   26.5364   25.7974   28.4008 N   0  0  0  0  0  0  0  0  0  0  0  0
   26.3563   25.6599   26.9759 C   0  0  0  0  0  0  0  0  0  0  0  0
   25.6396   24.5832   26.4285 C   0  0  0  0  0  0  0  0  0  0  0  0
   25.4774   24.4913   25.0416 C   0  0  0  0  0  0  0  0  0  0  0  0
   24.7699   23.4256   24.4869 O   0  0  0  0  0  0  0  0  0  0  0  0
   26.0248   25.4759   24.2096 C   0  0  0  0  0  0  0  0  0  0  0  0
   25.8183   25.3556   22.4631 Cl  0  0  0  0  0  0  0  0  0  0  0  0
   26.7251   26.5492   24.7895 C   0  0  0  0  0  0  0  0  0  0  0  0
   27.3233   27.6360   23.9491 C   0  0  0  0  0  0  0  0  0  0  0  0
   26.8650   26.6082   26.1415 N   0  0  0  0  0  0  0  0  0  0  0  0
   26.6311   27.1520   28.9684 C   0  0  0  0  0  0  0  0  0  0  0  0
   26.5198   27.1356   30.4945 C   0  0  0  0  0  0  0  0  0  0  0  0
  1  2  1  0
  2  3  2  0
  2  4  1  0
  4  5  2  0
  5  6  1  0
  6  7  2  0
  7  8  1  0
  8  9  2  0
  9 10  1  0
 10 11  2  0
 11 12  1  0
 12 13  2  0
 13 14  1  0
 14 15  1  0
 15 16  1  0
 16 17  1  0
 17 18  1  0
 18 19  2  0
 19 20  1  0
 20 21  1  0
 20 22  2  0
 22 23  1  0
 22 24  1  0
 24 25  1  0
 24 26  2  0
 17 27  1  0
 27 28  1  0
 13  4  1  0
 28 14  1  0
 12  7  1  0
 26 18  1  0
M  END
>  <AAScore>  (1) 
2.384898067473001

>  <RootName>  (1) 
./4ZLY/04_DeltaGEst/trajectory_03/rank_01/lead_0107

$$$$
