confid_2
     RDKit          3D

 29 32  0  0  0  0  0  0  0  0999 V2000
   24.5700   26.8800   35.5900 N   0  0  0  0  0  0  0  0  0  0  0  0
   25.5000   26.4000   34.6900 C   0  0  0  0  0  0  0  0  0  0  0  0
   25.1700   25.5200   33.9100 O   0  0  0  0  0  0  0  0  0  0  0  0
   26.8400   27.0200   34.7400 C   0  0  0  0  0  0  0  0  0  0  0  0
   27.3800   27.2800   35.9400 N   0  0  0  0  0  0  0  0  0  0  0  0
   28.6200   27.7400   36.0300 N   0  0  0  0  0  0  0  0  0  0  0  0
   29.3800   28.0000   34.9600 C   0  0  0  0  0  0  0  0  0  0  0  0
   30.6700   28.5000   35.1300 C   0  0  0  0  0  0  0  0  0  0  0  0
   31.5400   28.6100   34.0300 C   0  0  0  0  0  0  0  0  0  0  0  0
   31.0900   28.2200   32.7700 C   0  0  0  0  0  0  0  0  0  0  0  0
   29.8000   27.7000   32.6000 C   0  0  0  0  0  0  0  0  0  0  0  0
   28.9600   27.5500   33.7100 C   0  0  0  0  0  0  0  0  0  0  0  0
   27.6600   27.0300   33.5900 C   0  0  0  0  0  0  0  0  0  0  0  0
   27.1600   26.7400   32.3400 N   0  0  0  0  0  0  0  0  0  0  0  0
   32.8649   29.1472   34.2560 N   0  0  0  0  0  0  0  0  0  0  0  0
   33.9135   29.4117   33.2576 C   0  0  1  0  0  0  0  0  0  0  0  0
   34.4809   28.1058   32.6607 C   0  0  0  0  0  0  0  0  0  0  0  0
   35.6434   28.3762   31.6822 C   0  0  0  0  0  0  0  0  0  0  0  0
   35.4992   29.7074   30.8941 C   0  0  2  0  0  0  0  0  0  0  0  0
   34.0295   30.1632   30.8003 C   0  0  0  0  0  0  0  0  0  0  0  0
   33.4602   30.4505   32.1975 C   0  0  0  0  0  0  0  0  0  0  0  0
   36.2085   29.6663   29.5190 C   0  0  0  0  0  0  0  0  0  0  0  0
   35.4813   28.8401   28.4397 C   0  0  0  0  0  0  0  0  0  0  0  0
   36.2631   28.8401   27.1838 N   0  0  0  0  0  0  0  0  0  0  0  0
   35.3763   28.7004   26.0096 C   0  0  0  0  0  0  0  0  0  0  0  0
   36.1937   28.4435   24.7254 C   0  0  0  0  0  0  0  0  0  0  0  0
   37.5583   28.7483   24.9309 O   0  0  0  0  0  0  0  0  0  0  0  0
   38.1127   27.8484   25.8763 C   0  0  0  0  0  0  0  0  0  0  0  0
   37.2730   27.7634   27.1692 C   0  0  0  0  0  0  0  0  0  0  0  0
  1  2  1  0
  2  3  2  0
  2  4  1  0
  4  5  2  0
  5  6  1  0
  6  7  2  0
  7  8  1  0
  8  9  2  0
  9 10  1  0
 10 11  2  0
 11 12  1  0
 12 13  2  0
 13 14  1  0
  9 15  1  0
 16 15  1  1
 16 17  1  0
 17 18  1  0
 18 19  1  0
 19 20  1  0
 20 21  1  0
 19 22  1  6
 22 23  1  0
 23 24  1  0
 24 25  1  0
 25 26  1  0
 26 27  1  0
 27 28  1  0
 28 29  1  0
 13  4  1  0
 21 16  1  0
 29 24  1  0
 12  7  1  0
M  END
>  <AAScore>  (1) 
-4.49035815885983

>  <RootName>  (1) 
./4ZLY/04_DeltaGEst/trajectory_05/rank_01/lead_0045

$$$$
