confid_4
     RDKit          3D

 28 31  0  0  0  0  0  0  0  0999 V2000
   24.2000   26.2400   35.6900 N   0  0  0  0  0  0  0  0  0  0  0  0
   24.8500   26.2800   34.4800 C   0  0  0  0  0  0  0  0  0  0  0  0
   24.3100   25.7400   33.5400 O   0  0  0  0  0  0  0  0  0  0  0  0
   26.1800   26.9700   34.4700 C   0  0  0  0  0  0  0  0  0  0  0  0
   26.6500   27.6000   35.5500 N   0  0  0  0  0  0  0  0  0  0  0  0
   27.7900   28.2700   35.6200 N   0  0  0  0  0  0  0  0  0  0  0  0
   28.5400   28.3000   34.5100 C   0  0  0  0  0  0  0  0  0  0  0  0
   29.7700   28.9400   34.5600 C   0  0  0  0  0  0  0  0  0  0  0  0
   30.7000   28.8900   33.5000 C   0  0  0  0  0  0  0  0  0  0  0  0
   30.3700   28.1400   32.3700 C   0  0  0  0  0  0  0  0  0  0  0  0
   29.1200   27.5200   32.2800 C   0  0  0  0  0  0  0  0  0  0  0  0
   28.2100   27.6100   33.3300 C   0  0  0  0  0  0  0  0  0  0  0  0
   26.9700   26.9700   33.3100 C   0  0  0  0  0  0  0  0  0  0  0  0
   26.5300   26.2400   32.2200 N   0  0  0  0  0  0  0  0  0  0  0  0
   22.7761   26.0798   35.8388 C   0  0  0  0  0  0  0  0  0  0  0  0
   21.9451   26.2391   34.7785 N   0  0  0  0  0  0  0  0  0  0  0  0
   20.5990   26.1195   34.8913 C   0  0  0  0  0  0  0  0  0  0  0  0
   19.9951   25.8213   36.1308 C   0  0  0  0  0  0  0  0  0  0  0  0
   18.4683   25.7864   36.1692 C   0  0  1  0  0  0  0  0  0  0  0  0
   17.8569   24.3960   36.5120 C   0  0  0  0  0  0  0  0  0  0  0  0
   18.9080   23.4113   36.8634 N   0  0  0  0  0  0  0  0  0  0  0  0
   18.6337   22.0982   36.2578 C   0  0  0  0  0  0  0  0  0  0  0  0
   19.0684   23.2649   38.3221 C   0  0  0  0  0  0  0  0  0  0  0  0
   19.2884   24.6072   39.0282 C   0  0  0  0  0  0  0  0  0  0  0  0
   20.4536   25.2943   38.5705 O   0  0  0  0  0  0  0  0  0  0  0  0
   20.8533   25.6273   37.2596 C   0  0  0  0  0  0  0  0  0  0  0  0
   22.2342   25.7873   37.0917 C   0  0  0  0  0  0  0  0  0  0  0  0
   17.9025   26.9652   36.9813 C   0  0  0  0  0  0  0  0  0  0  0  0
  1  2  1  0
  2  3  2  0
  2  4  1  0
  4  5  2  0
  5  6  1  0
  6  7  2  0
  7  8  1  0
  8  9  2  0
  9 10  1  0
 10 11  2  0
 11 12  1  0
 12 13  2  0
 13 14  1  0
  1 15  1  0
 15 16  2  0
 16 17  1  0
 17 18  2  0
 18 19  1  0
 19 20  1  0
 20 21  1  0
 21 22  1  0
 21 23  1  0
 23 24  1  0
 24 25  1  0
 25 26  1  0
 26 27  2  0
 19 28  1  1
 13  4  1  0
 27 15  1  0
 12  7  1  0
 26 18  1  0
M  END
>  <AAScore>  (1) 
581.5637992253664

>  <RootName>  (1) 
./4ZLY/04_DeltaGEst/trajectory_04/rank_00/lead_0005

$$$$
