confid_14
     RDKit          3D

 28 31  0  0  0  0  0  0  0  0999 V2000
   24.5500   26.3900   36.2500 N   0  0  0  0  0  0  0  0  0  0  0  0
   25.6000   26.1300   35.4000 C   0  0  0  0  0  0  0  0  0  0  0  0
   25.4300   25.4300   34.4200 O   0  0  0  0  0  0  0  0  0  0  0  0
   26.9800   26.6300   35.7100 C   0  0  0  0  0  0  0  0  0  0  0  0
   27.3200   26.8200   36.9800 N   0  0  0  0  0  0  0  0  0  0  0  0
   28.4700   27.4000   37.3100 N   0  0  0  0  0  0  0  0  0  0  0  0
   29.4000   27.6300   36.3700 C   0  0  0  0  0  0  0  0  0  0  0  0
   30.6600   28.0500   36.8000 C   0  0  0  0  0  0  0  0  0  0  0  0
   31.5700   28.3600   35.7800 C   0  0  0  0  0  0  0  0  0  0  0  0
   31.3700   28.1000   34.4300 C   0  0  0  0  0  0  0  0  0  0  0  0
   30.1200   27.5900   34.0500 C   0  0  0  0  0  0  0  0  0  0  0  0
   29.1500   27.3400   35.0300 C   0  0  0  0  0  0  0  0  0  0  0  0
   27.8800   26.8900   34.6600 C   0  0  0  0  0  0  0  0  0  0  0  0
   27.4800   26.6100   33.3700 N   0  0  0  0  0  0  0  0  0  0  0  0
   30.9670   28.3123   38.2169 C   0  0  0  0  0  0  0  0  0  0  0  0
   31.3614   27.3302   39.1004 C   0  0  0  0  0  0  0  0  0  0  0  0
   31.3323   27.9086   40.3449 C   0  0  0  0  0  0  0  0  0  0  0  0
   31.6602   27.2345   41.5242 O   0  0  0  0  0  0  0  0  0  0  0  0
   32.0377   27.9124   42.7227 C   0  0  0  0  0  0  0  0  0  0  0  0
   30.8782   28.5092   43.4255 N   0  0  0  0  0  0  0  0  0  0  0  0
   30.1808   27.4983   44.2375 C   0  0  0  0  0  0  0  0  0  0  0  0
   29.9108   29.2027   42.5456 C   0  0  0  0  0  0  0  0  0  0  0  0
   30.5775   30.0370   41.4371 C   0  0  0  0  0  0  0  0  0  0  0  0
   30.9096   29.1913   40.2796 N   0  0  0  0  0  0  0  0  0  0  0  0
   30.7096   29.4684   38.9634 C   0  0  0  0  0  0  0  0  0  0  0  0
   30.1872   30.8027   38.4451 C   0  0  0  0  0  0  0  0  0  0  0  0
   30.8730   31.2632   37.1549 C   0  0  0  0  0  0  0  0  0  0  0  0
   28.6670   30.7701   38.2788 C   0  0  0  0  0  0  0  0  0  0  0  0
  1  2  1  0
  2  3  2  0
  2  4  1  0
  4  5  2  0
  5  6  1  0
  6  7  2  0
  7  8  1  0
  8  9  2  0
  9 10  1  0
 10 11  2  0
 11 12  1  0
 12 13  2  0
 13 14  1  0
  8 15  1  0
 15 16  1  0
 16 17  2  0
 17 18  1  0
 18 19  1  0
 19 20  1  0
 20 21  1  0
 20 22  1  0
 22 23  1  0
 23 24  1  0
 24 25  1  0
 25 26  1  0
 26 27  1  0
 26 28  1  0
 13  4  1  0
 25 15  2  0
 12  7  1  0
 24 17  1  0
M  END
>  <AAScore>  (1) 
65.7278210237059

>  <RootName>  (1) 
./4ZLY/04_DeltaGEst/trajectory_01/rank_01/lead_0187

$$$$
