confid_14
     RDKit          3D

 29 33  0  0  0  0  0  0  0  0999 V2000
   24.2000   26.2400   35.6900 N   0  0  0  0  0  0  0  0  0  0  0  0
   24.8500   26.2800   34.4800 C   0  0  0  0  0  0  0  0  0  0  0  0
   24.3100   25.7400   33.5400 O   0  0  0  0  0  0  0  0  0  0  0  0
   26.1800   26.9700   34.4700 C   0  0  0  0  0  0  0  0  0  0  0  0
   26.6500   27.6000   35.5500 N   0  0  0  0  0  0  0  0  0  0  0  0
   27.7900   28.2700   35.6200 N   0  0  0  0  0  0  0  0  0  0  0  0
   28.5400   28.3000   34.5100 C   0  0  0  0  0  0  0  0  0  0  0  0
   29.7700   28.9400   34.5600 C   0  0  0  0  0  0  0  0  0  0  0  0
   30.7000   28.8900   33.5000 C   0  0  0  0  0  0  0  0  0  0  0  0
   30.3700   28.1400   32.3700 C   0  0  0  0  0  0  0  0  0  0  0  0
   29.1200   27.5200   32.2800 C   0  0  0  0  0  0  0  0  0  0  0  0
   28.2100   27.6100   33.3300 C   0  0  0  0  0  0  0  0  0  0  0  0
   26.9700   26.9700   33.3100 C   0  0  0  0  0  0  0  0  0  0  0  0
   26.5300   26.2400   32.2200 N   0  0  0  0  0  0  0  0  0  0  0  0
   22.8202   25.8702   35.8874 C   0  0  0  0  0  0  0  0  0  0  0  0
   21.9975   25.8098   34.8722 N   0  0  0  0  0  0  0  0  0  0  0  0
   20.6021   25.4933   34.9701 C   0  0  0  0  0  0  0  0  0  0  0  0
   20.2022   24.3543   35.5234 C   0  0  0  0  0  0  0  0  0  0  0  0
   18.9444   23.6916   35.9999 C   0  0  0  0  0  0  0  0  0  0  0  0
   19.5830   22.5685   36.5203 O   0  0  0  0  0  0  0  0  0  0  0  0
   20.7943   23.0797   36.0606 C   0  0  2  0  0  0  0  0  0  0  0  0
   21.8387   23.2380   37.1883 C   0  0  0  0  0  0  0  0  0  0  0  0
   21.8681   24.6016   37.8321 C   0  0  0  0  0  0  0  0  0  0  0  0
   22.3292   25.7314   37.2799 C   0  0  0  0  0  0  0  0  0  0  0  0
   22.2899   26.8786   38.2571 C   0  0  0  0  0  0  0  0  0  0  0  0
   21.7221   26.2803   39.4604 N   0  0  0  0  0  0  0  0  0  0  0  0
   21.4765   24.9114   39.1889 C   0  0  0  0  0  0  0  0  0  0  0  0
   20.9954   24.0970   40.0222 O   0  0  0  0  0  0  0  0  0  0  0  0
   21.5038   26.9612   40.7293 C   0  0  0  0  0  0  0  0  0  0  0  0
  1  2  1  0
  2  3  2  0
  2  4  1  0
  4  5  2  0
  5  6  1  0
  6  7  2  0
  7  8  1  0
  8  9  2  0
  9 10  1  0
 10 11  2  0
 11 12  1  0
 12 13  2  0
 13 14  1  0
  1 15  1  0
 15 16  2  0
 16 17  1  0
 17 18  2  0
 18 19  1  0
 19 20  1  0
 20 21  1  0
 21 22  1  1
 22 23  1  0
 23 24  2  0
 24 25  1  0
 25 26  1  0
 26 27  1  0
 27 28  2  0
 26 29  1  0
 13  4  1  0
 24 15  1  0
 12  7  1  0
 21 18  1  0
 27 23  1  0
M  END
>  <AAScore>  (1) 
4706.768717281707

>  <RootName>  (1) 
./4ZLY/04_DeltaGEst/trajectory_04/rank_00/lead_0450

$$$$
