confid_9
     RDKit          3D

 27 30  0  0  0  0  0  0  0  0999 V2000
   24.6900   26.1200   35.5300 N   0  0  0  0  0  0  0  0  0  0  0  0
   25.6600   25.6700   34.6600 C   0  0  0  0  0  0  0  0  0  0  0  0
   25.2400   25.0100   33.7200 O   0  0  0  0  0  0  0  0  0  0  0  0
   27.0300   26.2200   34.8800 C   0  0  0  0  0  0  0  0  0  0  0  0
   27.3500   26.7300   36.0700 N   0  0  0  0  0  0  0  0  0  0  0  0
   28.5700   27.1800   36.3300 N   0  0  0  0  0  0  0  0  0  0  0  0
   29.5300   27.1100   35.3900 C   0  0  0  0  0  0  0  0  0  0  0  0
   30.8300   27.5700   35.6500 C   0  0  0  0  0  0  0  0  0  0  0  0
   31.8500   27.5400   34.6900 C   0  0  0  0  0  0  0  0  0  0  0  0
   31.5100   27.1200   33.4000 C   0  0  0  0  0  0  0  0  0  0  0  0
   30.2200   26.6300   33.1100 C   0  0  0  0  0  0  0  0  0  0  0  0
   29.2400   26.6600   34.1000 C   0  0  0  0  0  0  0  0  0  0  0  0
   27.9300   26.2600   33.8100 C   0  0  0  0  0  0  0  0  0  0  0  0
   27.5200   25.7100   32.6100 N   0  0  0  0  0  0  0  0  0  0  0  0
   31.1782   28.0685   37.0054 C   0  0  0  0  0  0  0  0  0  0  0  0
   31.1121   27.1600   38.0917 C   0  0  0  0  0  0  0  0  0  0  0  0
   31.4073   27.4480   39.4510 C   0  0  0  0  0  0  0  0  0  0  0  0
   31.2597   26.3368   40.4673 C   0  0  0  0  0  0  0  0  0  0  0  0
   30.1488   26.6422   41.4819 C   0  0  0  0  0  0  0  0  0  0  0  0
   30.6525   27.4735   42.5975 N   0  0  0  0  0  0  0  0  0  0  0  0
   29.7068   27.4100   43.7252 C   0  0  0  0  0  0  0  0  0  0  0  0
   30.8460   28.8835   42.1935 C   0  0  0  0  0  0  0  0  0  0  0  0
   32.0981   29.0483   41.3225 C   0  0  0  0  0  0  0  0  0  0  0  0
   31.8139   28.7262   39.8803 C   0  0  0  0  0  0  0  0  0  0  0  0
   31.9513   29.9455   38.7161 S   0  0  0  0  0  0  0  0  0  0  0  0
   31.5627   29.4073   37.1690 C   0  0  0  0  0  0  0  0  0  0  0  0
   31.6092   30.2068   36.1960 O   0  0  0  0  0  0  0  0  0  0  0  0
  1  2  1  0
  2  3  2  0
  2  4  1  0
  4  5  2  0
  5  6  1  0
  6  7  2  0
  7  8  1  0
  8  9  2  0
  9 10  1  0
 10 11  2  0
 11 12  1  0
 12 13  2  0
 13 14  1  0
  8 15  1  0
 15 16  2  0
 16 17  1  0
 17 18  1  0
 18 19  1  0
 19 20  1  0
 20 21  1  0
 20 22  1  0
 22 23  1  0
 23 24  1  0
 24 25  1  0
 25 26  1  0
 26 27  2  0
 13  4  1  0
 26 15  1  0
 12  7  1  0
 24 17  2  0
M  END
>  <AAScore>  (1) 
4.139753298395648

>  <RootName>  (1) 
./4ZLY/04_DeltaGEst/trajectory_02/rank_01/lead_0000

$$$$
