confid_6
     RDKit          3D

 31 34  0  0  0  0  0  0  0  0999 V2000
   24.2000   26.2400   35.6900 N   0  0  0  0  0  0  0  0  0  0  0  0
   24.8500   26.2800   34.4800 C   0  0  0  0  0  0  0  0  0  0  0  0
   24.3100   25.7400   33.5400 O   0  0  0  0  0  0  0  0  0  0  0  0
   26.1800   26.9700   34.4700 C   0  0  0  0  0  0  0  0  0  0  0  0
   26.6500   27.6000   35.5500 N   0  0  0  0  0  0  0  0  0  0  0  0
   27.7900   28.2700   35.6200 N   0  0  0  0  0  0  0  0  0  0  0  0
   28.5400   28.3000   34.5100 C   0  0  0  0  0  0  0  0  0  0  0  0
   29.7700   28.9400   34.5600 C   0  0  0  0  0  0  0  0  0  0  0  0
   30.7000   28.8900   33.5000 C   0  0  0  0  0  0  0  0  0  0  0  0
   30.3700   28.1400   32.3700 C   0  0  0  0  0  0  0  0  0  0  0  0
   29.1200   27.5200   32.2800 C   0  0  0  0  0  0  0  0  0  0  0  0
   28.2100   27.6100   33.3300 C   0  0  0  0  0  0  0  0  0  0  0  0
   26.9700   26.9700   33.3100 C   0  0  0  0  0  0  0  0  0  0  0  0
   26.5300   26.2400   32.2200 N   0  0  0  0  0  0  0  0  0  0  0  0
   22.8213   25.8589   35.8551 C   0  0  0  0  0  0  0  0  0  0  0  0
   22.4287   25.0110   36.8318 N   0  0  0  0  0  0  0  0  0  0  0  0
   21.0925   24.9035   36.6650 C   0  0  0  0  0  0  0  0  0  0  0  0
   20.7010   25.6947   35.6067 C   0  0  0  0  0  0  0  0  0  0  0  0
   19.3154   25.8097   35.0434 C   0  0  0  0  0  0  0  0  0  0  0  0
   19.2995   25.3596   33.5778 C   0  0  0  0  0  0  0  0  0  0  0  0
   19.8887   26.3783   32.6946 N   0  0  0  0  0  0  0  0  0  0  0  0
   19.0298   27.1390   31.8291 C   0  0  0  0  0  0  0  0  0  0  0  0
   18.0366   27.7381   32.3263 O   0  0  0  0  0  0  0  0  0  0  0  0
   19.2945   27.2303   30.4108 N   0  0  0  0  0  0  0  0  0  0  0  0
   18.8351   28.4056   29.6523 C   0  0  0  0  0  0  0  0  0  0  0  0
   17.3291   28.3539   29.3824 C   0  0  0  0  0  0  0  0  0  0  0  0
   20.0318   26.1662   29.7064 C   0  0  0  0  0  0  0  0  0  0  0  0
   19.0968   25.3520   28.8199 C   0  0  0  0  0  0  0  0  0  0  0  0
   21.3353   26.6451   32.7058 C   0  0  0  0  0  0  0  0  0  0  0  0
   21.7694   27.3011   34.0210 C   0  0  0  0  0  0  0  0  0  0  0  0
   21.7854   26.3118   35.1023 N   0  0  0  0  0  0  0  0  0  0  0  0
  1  2  1  0
  2  3  2  0
  2  4  1  0
  4  5  2  0
  5  6  1  0
  6  7  2  0
  7  8  1  0
  8  9  2  0
  9 10  1  0
 10 11  2  0
 11 12  1  0
 12 13  2  0
 13 14  1  0
  1 15  1  0
 15 16  2  0
 16 17  1  0
 17 18  2  0
 18 19  1  0
 19 20  1  0
 20 21  1  0
 21 22  1  0
 22 23  2  0
 22 24  1  0
 24 25  1  0
 25 26  1  0
 24 27  1  0
 27 28  1  0
 21 29  1  0
 29 30  1  0
 30 31  1  0
 13  4  1  0
 31 15  1  0
 12  7  1  0
 31 18  1  0
M  END
>  <AAScore>  (1) 
988.4925823390662

>  <RootName>  (1) 
./4ZLY/04_DeltaGEst/trajectory_04/rank_00/lead_0221

$$$$
