confid_8
     RDKit          3D

 28 31  0  0  0  0  0  0  0  0999 V2000
   24.2000   26.2400   35.6900 N   0  0  0  0  0  0  0  0  0  0  0  0
   24.8500   26.2800   34.4800 C   0  0  0  0  0  0  0  0  0  0  0  0
   24.3100   25.7400   33.5400 O   0  0  0  0  0  0  0  0  0  0  0  0
   26.1800   26.9700   34.4700 C   0  0  0  0  0  0  0  0  0  0  0  0
   26.6500   27.6000   35.5500 N   0  0  0  0  0  0  0  0  0  0  0  0
   27.7900   28.2700   35.6200 N   0  0  0  0  0  0  0  0  0  0  0  0
   28.5400   28.3000   34.5100 C   0  0  0  0  0  0  0  0  0  0  0  0
   29.7700   28.9400   34.5600 C   0  0  0  0  0  0  0  0  0  0  0  0
   30.7000   28.8900   33.5000 C   0  0  0  0  0  0  0  0  0  0  0  0
   30.3700   28.1400   32.3700 C   0  0  0  0  0  0  0  0  0  0  0  0
   29.1200   27.5200   32.2800 C   0  0  0  0  0  0  0  0  0  0  0  0
   28.2100   27.6100   33.3300 C   0  0  0  0  0  0  0  0  0  0  0  0
   26.9700   26.9700   33.3100 C   0  0  0  0  0  0  0  0  0  0  0  0
   26.5300   26.2400   32.2200 N   0  0  0  0  0  0  0  0  0  0  0  0
   23.1931   25.2599   36.0127 C   0  0  0  0  0  0  0  0  0  0  0  0
   23.2847   24.0174   35.4697 N   0  0  0  0  0  0  0  0  0  0  0  0
   22.4166   23.0237   35.7700 C   0  0  0  0  0  0  0  0  0  0  0  0
   21.3999   23.2303   36.7077 C   0  0  0  0  0  0  0  0  0  0  0  0
   20.4483   22.1025   37.0241 C   0  0  0  0  0  0  0  0  0  0  0  0
   19.0383   22.4661   36.6581 C   0  0  0  0  0  0  0  0  0  0  0  0
   18.4940   21.9064   35.6680 O   0  0  0  0  0  0  0  0  0  0  0  0
   18.2889   23.4054   37.4499 N   0  0  0  0  0  0  0  0  0  0  0  0
   16.8700   23.1451   37.6965 C   0  0  0  0  0  0  0  0  0  0  0  0
   18.8162   24.7522   37.7149 C   0  0  0  0  0  0  0  0  0  0  0  0
   20.1989   24.7043   38.3740 C   0  0  0  0  0  0  0  0  0  0  0  0
   21.2841   24.4951   37.3304 C   0  0  0  0  0  0  0  0  0  0  0  0
   22.1462   25.5506   36.9214 C   0  0  0  0  0  0  0  0  0  0  0  0
   21.9486   26.9627   37.4275 C   0  0  0  0  0  0  0  0  0  0  0  0
  1  2  1  0
  2  3  2  0
  2  4  1  0
  4  5  2  0
  5  6  1  0
  6  7  2  0
  7  8  1  0
  8  9  2  0
  9 10  1  0
 10 11  2  0
 11 12  1  0
 12 13  2  0
 13 14  1  0
  1 15  1  0
 15 16  2  0
 16 17  1  0
 17 18  2  0
 18 19  1  0
 19 20  1  0
 20 21  2  0
 20 22  1  0
 22 23  1  0
 22 24  1  0
 24 25  1  0
 25 26  1  0
 26 27  2  0
 27 28  1  0
 13  4  1  0
 27 15  1  0
 12  7  1  0
 26 18  1  0
M  END
>  <AAScore>  (1) 
660.4442294200303

>  <RootName>  (1) 
./4ZLY/04_DeltaGEst/trajectory_04/rank_00/lead_0267

$$$$
