confid_19
     RDKit          3D

 27 30  0  0  0  0  0  0  0  0999 V2000
   24.2000   26.2400   35.6900 N   0  0  0  0  0  0  0  0  0  0  0  0
   24.8500   26.2800   34.4800 C   0  0  0  0  0  0  0  0  0  0  0  0
   24.3100   25.7400   33.5400 O   0  0  0  0  0  0  0  0  0  0  0  0
   26.1800   26.9700   34.4700 C   0  0  0  0  0  0  0  0  0  0  0  0
   26.6500   27.6000   35.5500 N   0  0  0  0  0  0  0  0  0  0  0  0
   27.7900   28.2700   35.6200 N   0  0  0  0  0  0  0  0  0  0  0  0
   28.5400   28.3000   34.5100 C   0  0  0  0  0  0  0  0  0  0  0  0
   29.7700   28.9400   34.5600 C   0  0  0  0  0  0  0  0  0  0  0  0
   30.7000   28.8900   33.5000 C   0  0  0  0  0  0  0  0  0  0  0  0
   30.3700   28.1400   32.3700 C   0  0  0  0  0  0  0  0  0  0  0  0
   29.1200   27.5200   32.2800 C   0  0  0  0  0  0  0  0  0  0  0  0
   28.2100   27.6100   33.3300 C   0  0  0  0  0  0  0  0  0  0  0  0
   26.9700   26.9700   33.3100 C   0  0  0  0  0  0  0  0  0  0  0  0
   26.5300   26.2400   32.2200 N   0  0  0  0  0  0  0  0  0  0  0  0
   30.1333   29.6818   35.7406 N   0  0  0  0  0  0  0  0  0  0  0  0
   31.3751   29.3374   36.4506 C   0  0  0  0  0  0  0  0  0  0  0  0
   31.3007   29.6908   37.9444 C   0  0  0  0  0  0  0  0  0  0  0  0
   31.3717   31.1388   38.2240 N   0  0  0  0  0  0  0  0  0  0  0  0
   31.4593   31.5543   39.6273 C   0  0  0  0  0  0  0  0  0  0  0  0
   31.2572   32.1607   37.2031 C   0  0  0  0  0  0  0  0  0  0  0  0
   30.2871   32.0686   36.1768 C   0  0  0  0  0  0  0  0  0  0  0  0
   29.3677   30.8820   36.1005 C   0  0  0  0  0  0  0  0  0  0  0  0
   30.2134   33.0706   35.1944 C   0  0  0  0  0  0  0  0  0  0  0  0
   31.0744   34.1677   35.2381 C   0  0  0  0  0  0  0  0  0  0  0  0
   32.0228   34.2715   36.2553 C   0  0  0  0  0  0  0  0  0  0  0  0
   32.8618   35.3360   36.2920 F   0  0  0  0  0  0  0  0  0  0  0  0
   32.1155   33.2761   37.2307 C   0  0  0  0  0  0  0  0  0  0  0  0
  1  2  1  0
  2  3  2  0
  2  4  1  0
  4  5  2  0
  5  6  1  0
  6  7  2  0
  7  8  1  0
  8  9  2  0
  9 10  1  0
 10 11  2  0
 11 12  1  0
 12 13  2  0
 13 14  1  0
  8 15  1  0
 15 16  1  0
 16 17  1  0
 17 18  1  0
 18 19  1  0
 18 20  1  0
 20 21  2  0
 21 22  1  0
 21 23  1  0
 23 24  2  0
 24 25  1  0
 25 26  1  0
 25 27  2  0
 13  4  1  0
 22 15  1  0
 12  7  1  0
 27 20  1  0
M  END
>  <AAScore>  (1) 
-8.078404008648775

>  <RootName>  (1) 
./4ZLY/04_DeltaGEst/trajectory_04/rank_01/lead_0305

$$$$
