confid_19
     RDKit          3D

 27 30  0  0  0  0  0  0  0  0999 V2000
   24.6900   26.1200   35.5300 N   0  0  0  0  0  0  0  0  0  0  0  0
   25.6600   25.6700   34.6600 C   0  0  0  0  0  0  0  0  0  0  0  0
   25.2400   25.0100   33.7200 O   0  0  0  0  0  0  0  0  0  0  0  0
   27.0300   26.2200   34.8800 C   0  0  0  0  0  0  0  0  0  0  0  0
   27.3500   26.7300   36.0700 N   0  0  0  0  0  0  0  0  0  0  0  0
   28.5700   27.1800   36.3300 N   0  0  0  0  0  0  0  0  0  0  0  0
   29.5300   27.1100   35.3900 C   0  0  0  0  0  0  0  0  0  0  0  0
   30.8300   27.5700   35.6500 C   0  0  0  0  0  0  0  0  0  0  0  0
   31.8500   27.5400   34.6900 C   0  0  0  0  0  0  0  0  0  0  0  0
   31.5100   27.1200   33.4000 C   0  0  0  0  0  0  0  0  0  0  0  0
   30.2200   26.6300   33.1100 C   0  0  0  0  0  0  0  0  0  0  0  0
   29.2400   26.6600   34.1000 C   0  0  0  0  0  0  0  0  0  0  0  0
   27.9300   26.2600   33.8100 C   0  0  0  0  0  0  0  0  0  0  0  0
   27.5200   25.7100   32.6100 N   0  0  0  0  0  0  0  0  0  0  0  0
   23.3270   26.3997   35.1561 C   0  0  0  0  0  0  0  0  0  0  0  0
   22.9613   26.4631   33.8385 N   0  0  0  0  0  0  0  0  0  0  0  0
   21.6852   26.7442   33.4519 C   0  0  0  0  0  0  0  0  0  0  0  0
   20.7205   26.9998   34.4300 C   0  0  0  0  0  0  0  0  0  0  0  0
   19.2666   27.2665   34.2322 C   0  0  2  0  0  0  0  0  0  0  0  0
   18.6742   26.1179   33.7304 F   0  0  0  0  0  0  0  0  0  0  0  0
   19.0284   28.4591   33.2742 C   0  0  0  0  0  0  0  0  0  0  0  0
   17.5537   28.6539   32.8971 C   0  0  0  0  0  0  0  0  0  0  0  0
   16.8130   29.0895   34.0026 O   0  0  0  0  0  0  0  0  0  0  0  0
   18.7624   27.5368   35.6762 C   0  0  0  0  0  0  0  0  0  0  0  0
   19.8932   27.1395   36.6420 C   0  0  0  0  0  0  0  0  0  0  0  0
   21.0583   26.9288   35.7556 C   0  0  0  0  0  0  0  0  0  0  0  0
   22.3625   26.6340   36.1528 C   0  0  0  0  0  0  0  0  0  0  0  0
  1  2  1  0
  2  3  2  0
  2  4  1  0
  4  5  2  0
  5  6  1  0
  6  7  2  0
  7  8  1  0
  8  9  2  0
  9 10  1  0
 10 11  2  0
 11 12  1  0
 12 13  2  0
 13 14  1  0
  1 15  1  0
 15 16  2  0
 16 17  1  0
 17 18  2  0
 18 19  1  0
 19 20  1  6
 19 21  1  0
 21 22  1  0
 22 23  1  0
 19 24  1  0
 24 25  1  0
 25 26  1  0
 26 27  2  0
 13  4  1  0
 27 15  1  0
 12  7  1  0
 26 18  1  0
M  END
>  <AAScore>  (1) 
1308.89160399279

>  <RootName>  (1) 
./4ZLY/04_DeltaGEst/trajectory_02/rank_00/lead_0181

$$$$
