confid_7
     RDKit          3D

 28 31  0  0  0  0  0  0  0  0999 V2000
   24.5500   26.3900   36.2500 N   0  0  0  0  0  0  0  0  0  0  0  0
   25.6000   26.1300   35.4000 C   0  0  0  0  0  0  0  0  0  0  0  0
   25.4300   25.4300   34.4200 O   0  0  0  0  0  0  0  0  0  0  0  0
   26.9800   26.6300   35.7100 C   0  0  0  0  0  0  0  0  0  0  0  0
   27.3200   26.8200   36.9800 N   0  0  0  0  0  0  0  0  0  0  0  0
   28.4700   27.4000   37.3100 N   0  0  0  0  0  0  0  0  0  0  0  0
   29.4000   27.6300   36.3700 C   0  0  0  0  0  0  0  0  0  0  0  0
   30.6600   28.0500   36.8000 C   0  0  0  0  0  0  0  0  0  0  0  0
   31.5700   28.3600   35.7800 C   0  0  0  0  0  0  0  0  0  0  0  0
   31.3700   28.1000   34.4300 C   0  0  0  0  0  0  0  0  0  0  0  0
   30.1200   27.5900   34.0500 C   0  0  0  0  0  0  0  0  0  0  0  0
   29.1500   27.3400   35.0300 C   0  0  0  0  0  0  0  0  0  0  0  0
   27.8800   26.8900   34.6600 C   0  0  0  0  0  0  0  0  0  0  0  0
   27.4800   26.6100   33.3700 N   0  0  0  0  0  0  0  0  0  0  0  0
   30.9556   28.3195   38.1792 N   0  0  0  0  0  0  0  0  0  0  0  0
   31.0081   27.2222   39.1514 C   0  0  0  0  0  0  0  0  0  0  0  0
   30.0652   27.5187   40.3218 C   0  0  0  0  0  0  0  0  0  0  0  0
   30.1268   28.9326   40.7123 N   0  0  0  0  0  0  0  0  0  0  0  0
   29.2887   29.3991   41.7773 C   0  0  0  0  0  0  0  0  0  0  0  0
   29.7875   29.3908   43.0877 C   0  0  0  0  0  0  0  0  0  0  0  0
   29.0039   29.8560   44.1451 C   0  0  0  0  0  0  0  0  0  0  0  0
   27.7174   30.3382   43.9018 C   0  0  0  0  0  0  0  0  0  0  0  0
   27.2102   30.3562   42.6004 C   0  0  0  0  0  0  0  0  0  0  0  0
   27.9845   29.8880   41.5238 C   0  0  0  0  0  0  0  0  0  0  0  0
   27.3968   29.9210   40.1309 C   0  0  0  0  0  0  0  0  0  0  0  0
   26.3259   28.8471   39.9544 C   0  0  0  0  0  0  0  0  0  0  0  0
   31.1423   29.8249   40.1429 C   0  0  0  0  0  0  0  0  0  0  0  0
   31.1427   29.7101   38.6136 C   0  0  0  0  0  0  0  0  0  0  0  0
  1  2  1  0
  2  3  2  0
  2  4  1  0
  4  5  2  0
  5  6  1  0
  6  7  2  0
  7  8  1  0
  8  9  2  0
  9 10  1  0
 10 11  2  0
 11 12  1  0
 12 13  2  0
 13 14  1  0
  8 15  1  0
 15 16  1  0
 16 17  1  0
 17 18  1  0
 18 19  1  0
 19 20  2  0
 20 21  1  0
 21 22  2  0
 22 23  1  0
 23 24  2  0
 24 25  1  0
 25 26  1  0
 18 27  1  0
 27 28  1  0
 13  4  1  0
 28 15  1  0
 12  7  1  0
 24 19  1  0
M  END
>  <AAScore>  (1) 
233.50760066487737

>  <RootName>  (1) 
./4ZLY/04_DeltaGEst/trajectory_01/rank_01/lead_0037

$$$$
