confid_6
     RDKit          3D

 29 32  0  0  0  0  0  0  0  0999 V2000
   24.2000   26.2400   35.6900 N   0  0  0  0  0  0  0  0  0  0  0  0
   24.8500   26.2800   34.4800 C   0  0  0  0  0  0  0  0  0  0  0  0
   24.3100   25.7400   33.5400 O   0  0  0  0  0  0  0  0  0  0  0  0
   26.1800   26.9700   34.4700 C   0  0  0  0  0  0  0  0  0  0  0  0
   26.6500   27.6000   35.5500 N   0  0  0  0  0  0  0  0  0  0  0  0
   27.7900   28.2700   35.6200 N   0  0  0  0  0  0  0  0  0  0  0  0
   28.5400   28.3000   34.5100 C   0  0  0  0  0  0  0  0  0  0  0  0
   29.7700   28.9400   34.5600 C   0  0  0  0  0  0  0  0  0  0  0  0
   30.7000   28.8900   33.5000 C   0  0  0  0  0  0  0  0  0  0  0  0
   30.3700   28.1400   32.3700 C   0  0  0  0  0  0  0  0  0  0  0  0
   29.1200   27.5200   32.2800 C   0  0  0  0  0  0  0  0  0  0  0  0
   28.2100   27.6100   33.3300 C   0  0  0  0  0  0  0  0  0  0  0  0
   26.9700   26.9700   33.3100 C   0  0  0  0  0  0  0  0  0  0  0  0
   26.5300   26.2400   32.2200 N   0  0  0  0  0  0  0  0  0  0  0  0
   30.1424   29.6562   35.7485 N   0  0  0  0  0  0  0  0  0  0  0  0
   30.7430   28.9264   36.8683 C   0  0  0  0  0  0  0  0  0  0  0  0
   30.3840   29.5928   38.2007 C   0  0  0  0  0  0  0  0  0  0  0  0
   30.7015   31.0741   38.1904 C   0  0  0  0  0  0  0  0  0  0  0  0
   31.0608   31.7489   39.3804 C   0  0  0  0  0  0  0  0  0  0  0  0
   31.3637   33.1270   39.3444 C   0  0  0  0  0  0  0  0  0  0  0  0
   31.7824   33.8743   40.5880 C   0  0  0  0  0  0  0  0  0  0  0  0
   30.6120   34.6539   41.1802 C   0  0  0  0  0  0  0  0  0  0  0  0
   31.2380   33.8307   38.1382 C   0  0  0  0  0  0  0  0  0  0  0  0
   30.8375   33.1786   36.9739 C   0  0  0  0  0  0  0  0  0  0  0  0
   30.5721   31.8026   36.9884 C   0  0  0  0  0  0  0  0  0  0  0  0
   30.1822   31.0932   35.7514 C   0  0  0  0  0  0  0  0  0  0  0  0
   29.8772   31.7403   34.7118 O   0  0  0  0  0  0  0  0  0  0  0  0
   31.1489   31.0556   40.5927 O   0  0  0  0  0  0  0  0  0  0  0  0
   29.9943   30.6939   41.3418 C   0  0  0  0  0  0  0  0  0  0  0  0
  1  2  1  0
  2  3  2  0
  2  4  1  0
  4  5  2  0
  5  6  1  0
  6  7  2  0
  7  8  1  0
  8  9  2  0
  9 10  1  0
 10 11  2  0
 11 12  1  0
 12 13  2  0
 13 14  1  0
  8 15  1  0
 15 16  1  0
 16 17  1  0
 17 18  1  0
 18 19  2  0
 19 20  1  0
 20 21  1  0
 21 22  1  0
 20 23  2  0
 23 24  1  0
 24 25  2  0
 25 26  1  0
 26 27  2  0
 19 28  1  0
 28 29  1  0
 13  4  1  0
 26 15  1  0
 12  7  1  0
 25 18  1  0
M  END
>  <AAScore>  (1) 
-8.208761857282079

>  <RootName>  (1) 
./4ZLY/04_DeltaGEst/trajectory_04/rank_01/lead_0166

$$$$
