confid_2
     RDKit          3D

 28 31  0  0  0  0  0  0  0  0999 V2000
   24.5500   26.3900   36.2500 N   0  0  0  0  0  0  0  0  0  0  0  0
   25.6000   26.1300   35.4000 C   0  0  0  0  0  0  0  0  0  0  0  0
   25.4300   25.4300   34.4200 O   0  0  0  0  0  0  0  0  0  0  0  0
   26.9800   26.6300   35.7100 C   0  0  0  0  0  0  0  0  0  0  0  0
   27.3200   26.8200   36.9800 N   0  0  0  0  0  0  0  0  0  0  0  0
   28.4700   27.4000   37.3100 N   0  0  0  0  0  0  0  0  0  0  0  0
   29.4000   27.6300   36.3700 C   0  0  0  0  0  0  0  0  0  0  0  0
   30.6600   28.0500   36.8000 C   0  0  0  0  0  0  0  0  0  0  0  0
   31.5700   28.3600   35.7800 C   0  0  0  0  0  0  0  0  0  0  0  0
   31.3700   28.1000   34.4300 C   0  0  0  0  0  0  0  0  0  0  0  0
   30.1200   27.5900   34.0500 C   0  0  0  0  0  0  0  0  0  0  0  0
   29.1500   27.3400   35.0300 C   0  0  0  0  0  0  0  0  0  0  0  0
   27.8800   26.8900   34.6600 C   0  0  0  0  0  0  0  0  0  0  0  0
   27.4800   26.6100   33.3700 N   0  0  0  0  0  0  0  0  0  0  0  0
   31.0125   28.2675   38.2317 C   0  0  0  0  0  0  0  0  0  0  0  0
   32.0650   29.0394   38.7155 C   0  0  0  0  0  0  0  0  0  0  0  0
   31.9838   28.8973   40.0829 C   0  0  0  0  0  0  0  0  0  0  0  0
   32.8377   29.5572   41.1169 C   0  0  0  0  0  0  0  0  0  0  0  0
   32.5930   29.0026   42.4673 N   0  0  0  0  0  0  0  0  0  0  0  0
   31.2048   28.5973   42.7866 C   0  0  0  0  0  0  0  0  0  0  0  0
   30.5789   27.6772   41.7205 C   0  0  0  0  0  0  0  0  0  0  0  0
   30.9392   28.1165   40.3808 N   0  0  0  0  0  0  0  0  0  0  0  0
   30.3510   27.7077   39.2697 N   0  0  0  0  0  0  0  0  0  0  0  0
   33.6883   28.2119   43.0688 C   0  0  0  0  0  0  0  0  0  0  0  0
   33.7958   26.7691   42.5527 C   0  0  0  0  0  0  0  0  0  0  0  0
   33.6616   26.7139   41.1783 F   0  0  0  0  0  0  0  0  0  0  0  0
   32.8332   25.9751   43.1469 F   0  0  0  0  0  0  0  0  0  0  0  0
   35.0375   26.2627   42.8912 F   0  0  0  0  0  0  0  0  0  0  0  0
  1  2  1  0
  2  3  2  0
  2  4  1  0
  4  5  2  0
  5  6  1  0
  6  7  2  0
  7  8  1  0
  8  9  2  0
  9 10  1  0
 10 11  2  0
 11 12  1  0
 12 13  2  0
 13 14  1  0
  8 15  1  0
 15 16  1  0
 16 17  2  0
 17 18  1  0
 18 19  1  0
 19 20  1  0
 20 21  1  0
 21 22  1  0
 22 23  1  0
 19 24  1  0
 24 25  1  0
 25 26  1  0
 25 27  1  0
 25 28  1  0
 13  4  1  0
 23 15  2  0
 12  7  1  0
 22 17  1  0
M  END
>  <AAScore>  (1) 
999.016659807459

>  <RootName>  (1) 
./4ZLY/04_DeltaGEst/trajectory_01/rank_01/lead_0234

$$$$
