confid_10
     RDKit          3D

 27 30  0  0  0  0  0  0  0  0999 V2000
   24.6900   26.1200   35.5300 N   0  0  0  0  0  0  0  0  0  0  0  0
   25.6600   25.6700   34.6600 C   0  0  0  0  0  0  0  0  0  0  0  0
   25.2400   25.0100   33.7200 O   0  0  0  0  0  0  0  0  0  0  0  0
   27.0300   26.2200   34.8800 C   0  0  0  0  0  0  0  0  0  0  0  0
   27.3500   26.7300   36.0700 N   0  0  0  0  0  0  0  0  0  0  0  0
   28.5700   27.1800   36.3300 N   0  0  0  0  0  0  0  0  0  0  0  0
   29.5300   27.1100   35.3900 C   0  0  0  0  0  0  0  0  0  0  0  0
   30.8300   27.5700   35.6500 C   0  0  0  0  0  0  0  0  0  0  0  0
   31.8500   27.5400   34.6900 C   0  0  0  0  0  0  0  0  0  0  0  0
   31.5100   27.1200   33.4000 C   0  0  0  0  0  0  0  0  0  0  0  0
   30.2200   26.6300   33.1100 C   0  0  0  0  0  0  0  0  0  0  0  0
   29.2400   26.6600   34.1000 C   0  0  0  0  0  0  0  0  0  0  0  0
   27.9300   26.2600   33.8100 C   0  0  0  0  0  0  0  0  0  0  0  0
   27.5200   25.7100   32.6100 N   0  0  0  0  0  0  0  0  0  0  0  0
   23.6204   25.3008   36.0280 C   0  0  0  0  0  0  0  0  0  0  0  0
   23.3485   24.0890   35.4742 N   0  0  0  0  0  0  0  0  0  0  0  0
   22.3700   23.2927   35.9723 C   0  0  0  0  0  0  0  0  0  0  0  0
   21.6274   23.7028   37.0875 C   0  0  0  0  0  0  0  0  0  0  0  0
   20.6544   22.7629   37.7635 C   0  0  0  0  0  0  0  0  0  0  0  0
   19.2420   23.2093   37.6654 N   0  0  0  0  0  0  0  0  0  0  0  0
   18.4085   22.4270   38.5922 C   0  0  0  0  0  0  0  0  0  0  0  0
   19.0220   24.6638   37.8598 C   0  0  0  0  0  0  0  0  0  0  0  0
   19.8574   25.2655   38.9643 C   0  0  0  0  0  0  0  0  0  0  0  0
   21.1800   25.4683   38.8292 C   0  0  0  0  0  0  0  0  0  0  0  0
   21.9459   26.2056   39.8895 C   0  0  0  0  0  0  0  0  0  0  0  0
   21.9141   24.9652   37.6430 C   0  0  0  0  0  0  0  0  0  0  0  0
   22.9034   25.7236   37.1018 N   0  0  0  0  0  0  0  0  0  0  0  0
  1  2  1  0
  2  3  2  0
  2  4  1  0
  4  5  2  0
  5  6  1  0
  6  7  2  0
  7  8  1  0
  8  9  2  0
  9 10  1  0
 10 11  2  0
 11 12  1  0
 12 13  2  0
 13 14  1  0
  1 15  1  0
 15 16  2  0
 16 17  1  0
 17 18  2  0
 18 19  1  0
 19 20  1  0
 20 21  1  0
 20 22  1  0
 22 23  1  0
 23 24  2  0
 24 25  1  0
 24 26  1  0
 26 27  2  0
 13  4  1  0
 27 15  1  0
 12  7  1  0
 26 18  1  0
M  END
>  <AAScore>  (1) 
629.026222201453

>  <RootName>  (1) 
./4ZLY/04_DeltaGEst/trajectory_02/rank_00/lead_0137

$$$$
