confid_2
     RDKit          3D

 28 31  0  0  0  0  0  0  0  0999 V2000
   25.3300   26.2600   34.7600 N   0  0  0  0  0  0  0  0  0  0  0  0
   26.1200   25.9200   33.6900 C   0  0  0  0  0  0  0  0  0  0  0  0
   25.6300   25.1100   32.9400 O   0  0  0  0  0  0  0  0  0  0  0  0
   27.5200   26.3800   33.4600 C   0  0  0  0  0  0  0  0  0  0  0  0
   28.1600   26.6300   34.6100 N   0  0  0  0  0  0  0  0  0  0  0  0
   29.4800   26.8500   34.5700 N   0  0  0  0  0  0  0  0  0  0  0  0
   30.1900   26.7800   33.4400 C   0  0  0  0  0  0  0  0  0  0  0  0
   31.5600   27.0500   33.5000 C   0  0  0  0  0  0  0  0  0  0  0  0
   32.2700   27.2400   32.3100 C   0  0  0  0  0  0  0  0  0  0  0  0
   31.6100   27.2500   31.0800 C   0  0  0  0  0  0  0  0  0  0  0  0
   30.2700   26.8700   31.0600 C   0  0  0  0  0  0  0  0  0  0  0  0
   29.5100   26.6900   32.2300 C   0  0  0  0  0  0  0  0  0  0  0  0
   28.1400   26.4100   32.2000 C   0  0  0  0  0  0  0  0  0  0  0  0
   27.4300   26.1300   31.0500 N   0  0  0  0  0  0  0  0  0  0  0  0
   27.6358   24.8119   30.4123 C   0  0  0  0  0  0  0  0  0  0  0  0
   26.4983   24.3716   29.4677 C   0  0  0  0  0  0  0  0  0  0  0  0
   26.2658   25.3071   28.3576 N   0  0  0  0  0  0  0  0  0  0  0  0
   25.0424   25.1620   27.5710 C   0  0  0  0  0  0  0  0  0  0  0  0
   27.3628   26.0286   27.7827 C   0  0  0  0  0  0  0  0  0  0  0  0
   28.0659   25.4568   26.7122 C   0  0  0  0  0  0  0  0  0  0  0  0
   29.1608   26.1139   26.1519 C   0  0  0  0  0  0  0  0  0  0  0  0
   29.5612   27.3549   26.6518 C   0  0  0  0  0  0  0  0  0  0  0  0
   28.8635   27.9367   27.7162 C   0  0  0  0  0  0  0  0  0  0  0  0
   27.7727   27.2755   28.3134 C   0  0  0  0  0  0  0  0  0  0  0  0
   27.0245   27.9958   29.4246 C   0  0  0  0  0  0  0  0  0  0  0  0
   26.4585   27.1281   30.5636 C   0  0  0  0  0  0  0  0  0  0  0  0
   30.6877   28.0364   26.0697 C   0  0  0  0  0  0  0  0  0  0  0  0
   31.5935   28.5843   25.6021 N   0  0  0  0  0  0  0  0  0  0  0  0
  1  2  1  0
  2  3  2  0
  2  4  1  0
  4  5  2  0
  5  6  1  0
  6  7  2  0
  7  8  1  0
  8  9  2  0
  9 10  1  0
 10 11  2  0
 11 12  1  0
 12 13  2  0
 13 14  1  0
 14 15  1  0
 15 16  1  0
 16 17  1  0
 17 18  1  0
 17 19  1  0
 19 20  2  0
 20 21  1  0
 21 22  2  0
 22 23  1  0
 23 24  2  0
 24 25  1  0
 25 26  1  0
 22 27  1  0
 27 28  3  0
 13  4  1  0
 26 14  1  0
 12  7  1  0
 24 19  1  0
M  END
>  <AAScore>  (1) 
12.812487389763808

>  <RootName>  (1) 
./4ZLY/04_DeltaGEst/trajectory_03/rank_01/lead_0384

$$$$
