confid_19
     RDKit          3D

 27 30  0  0  0  0  0  0  0  0999 V2000
   24.4800   26.1000   36.1300 N   0  0  0  0  0  0  0  0  0  0  0  0
   25.2500   26.2500   34.9900 C   0  0  0  0  0  0  0  0  0  0  0  0
   24.7400   25.7600   33.9900 O   0  0  0  0  0  0  0  0  0  0  0  0
   26.5900   26.8900   34.9600 C   0  0  0  0  0  0  0  0  0  0  0  0
   27.0600   27.2400   36.1600 N   0  0  0  0  0  0  0  0  0  0  0  0
   28.3000   27.7100   36.2400 N   0  0  0  0  0  0  0  0  0  0  0  0
   29.0500   27.9600   35.1500 C   0  0  0  0  0  0  0  0  0  0  0  0
   30.3400   28.4900   35.2600 C   0  0  0  0  0  0  0  0  0  0  0  0
   31.1100   28.8200   34.1400 C   0  0  0  0  0  0  0  0  0  0  0  0
   30.5200   28.6700   32.8800 C   0  0  0  0  0  0  0  0  0  0  0  0
   29.2900   28.0200   32.7700 C   0  0  0  0  0  0  0  0  0  0  0  0
   28.5200   27.7100   33.8900 C   0  0  0  0  0  0  0  0  0  0  0  0
   27.2700   27.0800   33.7600 C   0  0  0  0  0  0  0  0  0  0  0  0
   26.7500   26.8800   32.4900 N   0  0  0  0  0  0  0  0  0  0  0  0
   23.4160   25.1448   36.2687 C   0  0  0  0  0  0  0  0  0  0  0  0
   22.1950   25.4962   36.7223 N   0  0  0  0  0  0  0  0  0  0  0  0
   21.5076   24.3384   36.7496 C   0  0  0  0  0  0  0  0  0  0  0  0
   22.3213   23.3081   36.3265 C   0  0  0  0  0  0  0  0  0  0  0  0
   21.9334   21.8569   36.3092 C   0  0  0  0  0  0  0  0  0  0  0  0
   22.2233   21.2782   35.0487 O   0  0  0  0  0  0  0  0  0  0  0  0
   23.3720   20.4483   35.0858 C   0  0  0  0  0  0  0  0  0  0  0  0
   24.4715   20.9942   34.1636 C   0  0  0  0  0  0  0  0  0  0  0  0
   24.6723   22.5220   34.2253 C   0  0  0  0  0  0  0  0  0  0  0  0
   23.6472   23.1390   33.5236 F   0  0  0  0  0  0  0  0  0  0  0  0
   25.8568   22.8184   33.5706 F   0  0  0  0  0  0  0  0  0  0  0  0
   24.7546   23.0726   35.6710 C   0  0  0  0  0  0  0  0  0  0  0  0
   23.5400   23.8141   36.0386 N   0  0  0  0  0  0  0  0  0  0  0  0
  1  2  1  0
  2  3  2  0
  2  4  1  0
  4  5  2  0
  5  6  1  0
  6  7  2  0
  7  8  1  0
  8  9  2  0
  9 10  1  0
 10 11  2  0
 11 12  1  0
 12 13  2  0
 13 14  1  0
  1 15  1  0
 15 16  2  0
 16 17  1  0
 17 18  2  0
 18 19  1  0
 19 20  1  0
 20 21  1  0
 21 22  1  0
 22 23  1  0
 23 24  1  0
 23 25  1  0
 23 26  1  0
 26 27  1  0
 13  4  1  0
 27 15  1  0
 12  7  1  0
 27 18  1  0
M  END
>  <AAScore>  (1) 
6664.141414180908

>  <RootName>  (1) 
./4ZLY/04_DeltaGEst/trajectory_00/rank_00/lead_0125

$$$$
