confid_9
     RDKit          3D

 27 30  0  0  0  0  0  0  0  0999 V2000
   24.4800   26.1000   36.1300 N   0  0  0  0  0  0  0  0  0  0  0  0
   25.2500   26.2500   34.9900 C   0  0  0  0  0  0  0  0  0  0  0  0
   24.7400   25.7600   33.9900 O   0  0  0  0  0  0  0  0  0  0  0  0
   26.5900   26.8900   34.9600 C   0  0  0  0  0  0  0  0  0  0  0  0
   27.0600   27.2400   36.1600 N   0  0  0  0  0  0  0  0  0  0  0  0
   28.3000   27.7100   36.2400 N   0  0  0  0  0  0  0  0  0  0  0  0
   29.0500   27.9600   35.1500 C   0  0  0  0  0  0  0  0  0  0  0  0
   30.3400   28.4900   35.2600 C   0  0  0  0  0  0  0  0  0  0  0  0
   31.1100   28.8200   34.1400 C   0  0  0  0  0  0  0  0  0  0  0  0
   30.5200   28.6700   32.8800 C   0  0  0  0  0  0  0  0  0  0  0  0
   29.2900   28.0200   32.7700 C   0  0  0  0  0  0  0  0  0  0  0  0
   28.5200   27.7100   33.8900 C   0  0  0  0  0  0  0  0  0  0  0  0
   27.2700   27.0800   33.7600 C   0  0  0  0  0  0  0  0  0  0  0  0
   26.7500   26.8800   32.4900 N   0  0  0  0  0  0  0  0  0  0  0  0
   24.8164   25.1065   37.1060 C   0  0  0  0  0  0  0  0  0  0  0  0
   25.0972   25.4365   38.3912 N   0  0  0  0  0  0  0  0  0  0  0  0
   25.2874   24.2360   38.9664 C   0  0  0  0  0  0  0  0  0  0  0  0
   24.9593   23.8367   40.3587 C   0  0  0  0  0  0  0  0  0  0  0  0
   24.5448   22.3472   40.1866 C   0  0  0  0  0  0  0  0  0  0  0  0
   24.5225   22.0924   38.7408 N   0  0  0  0  0  0  0  0  0  0  0  0
   25.0495   23.2434   38.0977 C   0  0  0  0  0  0  0  0  0  0  0  0
   24.7165   23.7626   36.8988 N   0  0  0  0  0  0  0  0  0  0  0  0
   24.1351   23.0760   35.7408 C   0  0  0  0  0  0  0  0  0  0  0  0
   22.6224   23.3000   35.6694 C   0  0  0  0  0  0  0  0  0  0  0  0
   22.0098   22.8594   36.8296 F   0  0  0  0  0  0  0  0  0  0  0  0
   22.1000   22.6055   34.5918 F   0  0  0  0  0  0  0  0  0  0  0  0
   24.3170   20.7811   38.1493 C   0  0  0  0  0  0  0  0  0  0  0  0
  1  2  1  0
  2  3  2  0
  2  4  1  0
  4  5  2  0
  5  6  1  0
  6  7  2  0
  7  8  1  0
  8  9  2  0
  9 10  1  0
 10 11  2  0
 11 12  1  0
 12 13  2  0
 13 14  1  0
  1 15  1  0
 15 16  2  0
 16 17  1  0
 17 18  1  0
 18 19  1  0
 19 20  1  0
 20 21  1  0
 21 22  1  0
 22 23  1  0
 23 24  1  0
 24 25  1  0
 24 26  1  0
 20 27  1  0
 13  4  1  0
 22 15  1  0
 12  7  1  0
 21 17  2  0
M  END
>  <AAScore>  (1) 
1095.641349171667

>  <RootName>  (1) 
./4ZLY/04_DeltaGEst/trajectory_00/rank_01/lead_0295

$$$$
