confid_3
     RDKit          3D

 29 32  0  0  0  0  0  0  0  0999 V2000
   24.5500   26.3900   36.2500 N   0  0  0  0  0  0  0  0  0  0  0  0
   25.6000   26.1300   35.4000 C   0  0  0  0  0  0  0  0  0  0  0  0
   25.4300   25.4300   34.4200 O   0  0  0  0  0  0  0  0  0  0  0  0
   26.9800   26.6300   35.7100 C   0  0  0  0  0  0  0  0  0  0  0  0
   27.3200   26.8200   36.9800 N   0  0  0  0  0  0  0  0  0  0  0  0
   28.4700   27.4000   37.3100 N   0  0  0  0  0  0  0  0  0  0  0  0
   29.4000   27.6300   36.3700 C   0  0  0  0  0  0  0  0  0  0  0  0
   30.6600   28.0500   36.8000 C   0  0  0  0  0  0  0  0  0  0  0  0
   31.5700   28.3600   35.7800 C   0  0  0  0  0  0  0  0  0  0  0  0
   31.3700   28.1000   34.4300 C   0  0  0  0  0  0  0  0  0  0  0  0
   30.1200   27.5900   34.0500 C   0  0  0  0  0  0  0  0  0  0  0  0
   29.1500   27.3400   35.0300 C   0  0  0  0  0  0  0  0  0  0  0  0
   27.8800   26.8900   34.6600 C   0  0  0  0  0  0  0  0  0  0  0  0
   27.4800   26.6100   33.3700 N   0  0  0  0  0  0  0  0  0  0  0  0
   30.9886   28.2877   38.1831 N   0  0  0  0  0  0  0  0  0  0  0  0
   32.2458   27.7647   38.7279 C   0  0  0  0  0  0  0  0  0  0  0  0
   32.0847   27.5128   40.2297 C   0  0  0  0  0  0  0  0  0  0  0  0
   31.6718   28.7341   40.9630 N   0  0  0  0  0  0  0  0  0  0  0  0
   31.0495   28.4571   42.2792 C   0  0  0  0  0  0  0  0  0  0  0  0
   29.6577   27.8592   42.1859 C   0  0  0  0  0  0  0  0  0  0  0  0
   29.4807   26.4677   42.1916 C   0  0  0  0  0  0  0  0  0  0  0  0
   28.2056   25.9137   42.0719 C   0  0  0  0  0  0  0  0  0  0  0  0
   27.0754   26.7386   41.9640 C   0  0  0  0  0  0  0  0  0  0  0  0
   25.7137   26.1108   41.8201 C   0  0  0  0  0  0  0  0  0  0  0  0
   27.2369   28.1438   41.9979 C   0  0  0  0  0  0  0  0  0  0  0  0
   26.0513   29.0678   41.9014 C   0  0  0  0  0  0  0  0  0  0  0  0
   28.5265   28.6888   42.1224 C   0  0  0  0  0  0  0  0  0  0  0  0
   30.9819   29.7716   40.1575 C   0  0  0  0  0  0  0  0  0  0  0  0
   30.1565   29.1741   39.0090 C   0  0  0  0  0  0  0  0  0  0  0  0
  1  2  1  0
  2  3  2  0
  2  4  1  0
  4  5  2  0
  5  6  1  0
  6  7  2  0
  7  8  1  0
  8  9  2  0
  9 10  1  0
 10 11  2  0
 11 12  1  0
 12 13  2  0
 13 14  1  0
  8 15  1  0
 15 16  1  0
 16 17  1  0
 17 18  1  0
 18 19  1  0
 19 20  1  0
 20 21  2  0
 21 22  1  0
 22 23  2  0
 23 24  1  0
 23 25  1  0
 25 26  1  0
 25 27  2  0
 18 28  1  0
 28 29  1  0
 13  4  1  0
 29 15  1  0
 12  7  1  0
 27 20  1  0
M  END
>  <AAScore>  (1) 
75.96146409536763

>  <RootName>  (1) 
./4ZLY/04_DeltaGEst/trajectory_01/rank_01/lead_0136

$$$$
