confid_16
     RDKit          3D

 30 34  0  0  0  0  0  0  0  0999 V2000
   24.4800   26.1000   36.1300 N   0  0  0  0  0  0  0  0  0  0  0  0
   25.2500   26.2500   34.9900 C   0  0  0  0  0  0  0  0  0  0  0  0
   24.7400   25.7600   33.9900 O   0  0  0  0  0  0  0  0  0  0  0  0
   26.5900   26.8900   34.9600 C   0  0  0  0  0  0  0  0  0  0  0  0
   27.0600   27.2400   36.1600 N   0  0  0  0  0  0  0  0  0  0  0  0
   28.3000   27.7100   36.2400 N   0  0  0  0  0  0  0  0  0  0  0  0
   29.0500   27.9600   35.1500 C   0  0  0  0  0  0  0  0  0  0  0  0
   30.3400   28.4900   35.2600 C   0  0  0  0  0  0  0  0  0  0  0  0
   31.1100   28.8200   34.1400 C   0  0  0  0  0  0  0  0  0  0  0  0
   30.5200   28.6700   32.8800 C   0  0  0  0  0  0  0  0  0  0  0  0
   29.2900   28.0200   32.7700 C   0  0  0  0  0  0  0  0  0  0  0  0
   28.5200   27.7100   33.8900 C   0  0  0  0  0  0  0  0  0  0  0  0
   27.2700   27.0800   33.7600 C   0  0  0  0  0  0  0  0  0  0  0  0
   26.7500   26.8800   32.4900 N   0  0  0  0  0  0  0  0  0  0  0  0
   23.4315   25.1228   36.3046 C   0  0  0  0  0  0  0  0  0  0  0  0
   23.5063   24.0074   35.6289 N   0  0  0  0  0  0  0  0  0  0  0  0
   22.6617   22.8553   35.4759 C   0  0  0  0  0  0  0  0  0  0  0  0
   21.3339   22.9137   35.4721 C   0  0  0  0  0  0  0  0  0  0  0  0
   20.2691   22.3535   34.5698 C   0  0  0  0  0  0  0  0  0  0  0  0
   19.2699   23.2195   35.0024 O   0  0  0  0  0  0  0  0  0  0  0  0
   20.1543   23.7080   35.9610 C   0  0  1  0  0  0  0  0  0  0  0  0
   19.6845   23.2349   37.3592 C   0  0  0  0  0  0  0  0  0  0  0  0
   20.3921   25.2282   35.8377 C   0  0  0  0  0  0  0  0  0  0  0  0
   21.0814   25.7234   37.0774 C   0  0  0  0  0  0  0  0  0  0  0  0
   20.3001   26.2648   38.0559 N   0  0  0  0  0  0  0  0  0  0  0  0
   20.7640   26.5260   39.3053 C   0  0  0  0  0  0  0  0  0  0  0  0
   22.0765   26.1857   39.6379 C   0  0  0  0  0  0  0  0  0  0  0  0
   22.9056   25.6338   38.6636 C   0  0  0  0  0  0  0  0  0  0  0  0
   22.4282   25.3991   37.3625 C   0  0  0  0  0  0  0  0  0  0  0  0
   19.8541   27.1352   40.3252 C   0  0  0  0  0  0  0  0  0  0  0  0
  1  2  1  0
  2  3  2  0
  2  4  1  0
  4  5  2  0
  5  6  1  0
  6  7  2  0
  7  8  1  0
  8  9  2  0
  9 10  1  0
 10 11  2  0
 11 12  1  0
 12 13  2  0
 13 14  1  0
  1 15  1  0
 15 16  2  0
 16 17  1  0
 17 18  2  0
 18 19  1  0
 19 20  1  0
 20 21  1  0
 21 22  1  1
 21 23  1  0
 23 24  1  0
 24 25  2  0
 25 26  1  0
 26 27  2  0
 27 28  1  0
 28 29  2  0
 26 30  1  0
 13  4  1  0
 29 15  1  0
 12  7  1  0
 21 18  1  0
 29 24  1  0
M  END
>  <AAScore>  (1) 
7726.23183336348

>  <RootName>  (1) 
./4ZLY/04_DeltaGEst/trajectory_00/rank_01/lead_0381

$$$$
