confid_12
     RDKit          3D

 33 37  0  0  0  0  0  0  0  0999 V2000
   24.5500   26.3900   36.2500 N   0  0  0  0  0  0  0  0  0  0  0  0
   25.6000   26.1300   35.4000 C   0  0  0  0  0  0  0  0  0  0  0  0
   25.4300   25.4300   34.4200 O   0  0  0  0  0  0  0  0  0  0  0  0
   26.9800   26.6300   35.7100 C   0  0  0  0  0  0  0  0  0  0  0  0
   27.3200   26.8200   36.9800 N   0  0  0  0  0  0  0  0  0  0  0  0
   28.4700   27.4000   37.3100 N   0  0  0  0  0  0  0  0  0  0  0  0
   29.4000   27.6300   36.3700 C   0  0  0  0  0  0  0  0  0  0  0  0
   30.6600   28.0500   36.8000 C   0  0  0  0  0  0  0  0  0  0  0  0
   31.5700   28.3600   35.7800 C   0  0  0  0  0  0  0  0  0  0  0  0
   31.3700   28.1000   34.4300 C   0  0  0  0  0  0  0  0  0  0  0  0
   30.1200   27.5900   34.0500 C   0  0  0  0  0  0  0  0  0  0  0  0
   29.1500   27.3400   35.0300 C   0  0  0  0  0  0  0  0  0  0  0  0
   27.8800   26.8900   34.6600 C   0  0  0  0  0  0  0  0  0  0  0  0
   27.4800   26.6100   33.3700 N   0  0  0  0  0  0  0  0  0  0  0  0
   23.1704   25.9183   36.0542 C   0  0  0  0  0  0  0  0  0  0  0  0
   22.5381   26.5676   34.8031 C   0  0  0  0  0  0  0  0  0  0  0  0
   21.1608   25.9611   34.5122 C   0  0  0  0  0  0  0  0  0  0  0  0
   21.2197   24.4954   34.4794 N   0  0  0  0  0  0  0  0  0  0  0  0
   20.0049   23.7607   34.2813 C   0  0  0  0  0  0  0  0  0  0  0  0
   19.2084   23.6356   35.2524 O   0  0  0  0  0  0  0  0  0  0  0  0
   19.6616   23.1231   32.9449 C   0  0  0  0  0  0  0  0  0  0  0  0
   18.3046   23.5791   32.5700 C   0  0  0  0  0  0  0  0  0  0  0  0
   17.2433   23.9355   32.2756 N   0  0  0  0  0  0  0  0  0  0  0  0
   19.6731   21.5835   33.1007 C   0  0  0  0  0  0  0  0  0  0  0  0
   19.4975   20.8667   31.7530 C   0  0  0  0  0  0  0  0  0  0  0  0
   20.5429   21.2944   30.8048 N   0  0  0  0  0  0  0  0  0  0  0  0
   20.4280   22.7402   30.5378 C   0  0  0  0  0  0  0  0  0  0  0  0
   20.6593   23.5352   31.8305 C   0  0  0  0  0  0  0  0  0  0  0  0
   20.3875   20.5554   29.5453 C   0  0  0  0  0  0  0  0  0  0  0  0
   21.0938   19.2085   29.5411 C   0  0  0  0  0  0  0  0  0  0  0  0
   21.6914   20.3820   28.7833 C   0  0  0  0  0  0  0  0  0  0  0  0
   22.4644   23.7854   34.7939 C   0  0  0  0  0  0  0  0  0  0  0  0
   23.0904   24.3646   36.0671 C   0  0  0  0  0  0  0  0  0  0  0  0
  1  2  1  0
  2  3  2  0
  2  4  1  0
  4  5  2  0
  5  6  1  0
  6  7  2  0
  7  8  1  0
  8  9  2  0
  9 10  1  0
 10 11  2  0
 11 12  1  0
 12 13  2  0
 13 14  1  0
  1 15  1  0
 15 16  1  0
 16 17  1  0
 17 18  1  0
 18 19  1  0
 19 20  2  0
 19 21  1  0
 21 22  1  0
 22 23  3  0
 21 24  1  0
 24 25  1  0
 25 26  1  0
 26 27  1  0
 27 28  1  0
 26 29  1  0
 29 30  1  0
 30 31  1  0
 18 32  1  0
 32 33  1  0
 13  4  1  0
 33 15  1  0
 12  7  1  0
 28 21  1  0
 31 29  1  0
M  END
>  <AAScore>  (1) 
687.8739571723504

>  <RootName>  (1) 
./4ZLY/04_DeltaGEst/trajectory_01/rank_00/lead_0171

$$$$
