confid_8
     RDKit          3D

 28 31  0  0  0  0  0  0  0  0999 V2000
   24.4800   26.1000   36.1300 N   0  0  0  0  0  0  0  0  0  0  0  0
   25.2500   26.2500   34.9900 C   0  0  0  0  0  0  0  0  0  0  0  0
   24.7400   25.7600   33.9900 O   0  0  0  0  0  0  0  0  0  0  0  0
   26.5900   26.8900   34.9600 C   0  0  0  0  0  0  0  0  0  0  0  0
   27.0600   27.2400   36.1600 N   0  0  0  0  0  0  0  0  0  0  0  0
   28.3000   27.7100   36.2400 N   0  0  0  0  0  0  0  0  0  0  0  0
   29.0500   27.9600   35.1500 C   0  0  0  0  0  0  0  0  0  0  0  0
   30.3400   28.4900   35.2600 C   0  0  0  0  0  0  0  0  0  0  0  0
   31.1100   28.8200   34.1400 C   0  0  0  0  0  0  0  0  0  0  0  0
   30.5200   28.6700   32.8800 C   0  0  0  0  0  0  0  0  0  0  0  0
   29.2900   28.0200   32.7700 C   0  0  0  0  0  0  0  0  0  0  0  0
   28.5200   27.7100   33.8900 C   0  0  0  0  0  0  0  0  0  0  0  0
   27.2700   27.0800   33.7600 C   0  0  0  0  0  0  0  0  0  0  0  0
   26.7500   26.8800   32.4900 N   0  0  0  0  0  0  0  0  0  0  0  0
   23.4234   25.1319   36.2958 C   0  0  0  0  0  0  0  0  0  0  0  0
   23.3985   24.0088   35.5261 N   0  0  0  0  0  0  0  0  0  0  0  0
   22.4578   23.0431   35.6798 C   0  0  0  0  0  0  0  0  0  0  0  0
   21.4730   23.1680   36.6652 C   0  0  0  0  0  0  0  0  0  0  0  0
   20.4774   22.0572   36.8656 C   0  0  0  0  0  0  0  0  0  0  0  0
   19.2879   22.5097   37.7132 C   0  0  0  0  0  0  0  0  0  0  0  0
   19.7737   23.1959   38.9257 N   0  0  0  0  0  0  0  0  0  0  0  0
   20.4081   24.4804   38.5519 C   0  0  0  0  0  0  0  0  0  0  0  0
   21.4895   24.2941   37.5102 C   0  0  0  0  0  0  0  0  0  0  0  0
   22.4500   25.3016   37.3001 C   0  0  0  0  0  0  0  0  0  0  0  0
   22.4296   26.4551   38.0898 O   0  0  0  0  0  0  0  0  0  0  0  0
   21.9991   27.7083   37.5715 C   0  0  0  0  0  0  0  0  0  0  0  0
   18.6590   23.4123   39.8754 C   0  0  0  0  0  0  0  0  0  0  0  0
   19.1827   23.6467   41.2920 C   0  0  0  0  0  0  0  0  0  0  0  0
  1  2  1  0
  2  3  2  0
  2  4  1  0
  4  5  2  0
  5  6  1  0
  6  7  2  0
  7  8  1  0
  8  9  2  0
  9 10  1  0
 10 11  2  0
 11 12  1  0
 12 13  2  0
 13 14  1  0
  1 15  1  0
 15 16  2  0
 16 17  1  0
 17 18  2  0
 18 19  1  0
 19 20  1  0
 20 21  1  0
 21 22  1  0
 22 23  1  0
 23 24  2  0
 24 25  1  0
 25 26  1  0
 21 27  1  0
 27 28  1  0
 13  4  1  0
 24 15  1  0
 12  7  1  0
 23 18  1  0
M  END
>  <AAScore>  (1) 
832.2747780479364

>  <RootName>  (1) 
./4ZLY/04_DeltaGEst/trajectory_00/rank_00/lead_0074

$$$$
