confid_12
     RDKit          3D

 27 30  0  0  0  0  0  0  0  0999 V2000
   24.2000   26.2400   35.6900 N   0  0  0  0  0  0  0  0  0  0  0  0
   24.8500   26.2800   34.4800 C   0  0  0  0  0  0  0  0  0  0  0  0
   24.3100   25.7400   33.5400 O   0  0  0  0  0  0  0  0  0  0  0  0
   26.1800   26.9700   34.4700 C   0  0  0  0  0  0  0  0  0  0  0  0
   26.6500   27.6000   35.5500 N   0  0  0  0  0  0  0  0  0  0  0  0
   27.7900   28.2700   35.6200 N   0  0  0  0  0  0  0  0  0  0  0  0
   28.5400   28.3000   34.5100 C   0  0  0  0  0  0  0  0  0  0  0  0
   29.7700   28.9400   34.5600 C   0  0  0  0  0  0  0  0  0  0  0  0
   30.7000   28.8900   33.5000 C   0  0  0  0  0  0  0  0  0  0  0  0
   30.3700   28.1400   32.3700 C   0  0  0  0  0  0  0  0  0  0  0  0
   29.1200   27.5200   32.2800 C   0  0  0  0  0  0  0  0  0  0  0  0
   28.2100   27.6100   33.3300 C   0  0  0  0  0  0  0  0  0  0  0  0
   26.9700   26.9700   33.3100 C   0  0  0  0  0  0  0  0  0  0  0  0
   26.5300   26.2400   32.2200 N   0  0  0  0  0  0  0  0  0  0  0  0
   23.2307   25.2391   36.0588 C   0  0  0  0  0  0  0  0  0  0  0  0
   23.0612   24.1221   35.3018 N   0  0  0  0  0  0  0  0  0  0  0  0
   22.1686   23.1544   35.6308 C   0  0  0  0  0  0  0  0  0  0  0  0
   21.3877   23.2677   36.7918 C   0  0  0  0  0  0  0  0  0  0  0  0
   20.3588   22.2036   37.0799 C   0  0  0  0  0  0  0  0  0  0  0  0
   19.0247   22.6173   36.5188 C   0  0  0  0  0  0  0  0  0  0  0  0
   18.7686   22.3654   35.3511 O   0  0  0  0  0  0  0  0  0  0  0  0
   17.9992   23.3516   37.3447 C   0  0  0  0  0  0  0  0  0  0  0  0
   18.5001   23.7183   38.6159 O   0  0  0  0  0  0  0  0  0  0  0  0
   19.2524   24.9195   38.5638 C   0  0  0  0  0  0  0  0  0  0  0  0
   20.7295   24.6340   38.8666 C   0  0  0  0  0  0  0  0  0  0  0  0
   21.5405   24.4178   37.6047 C   0  0  0  0  0  0  0  0  0  0  0  0
   22.4715   25.3993   37.2240 C   0  0  0  0  0  0  0  0  0  0  0  0
  1  2  1  0
  2  3  2  0
  2  4  1  0
  4  5  2  0
  5  6  1  0
  6  7  2  0
  7  8  1  0
  8  9  2  0
  9 10  1  0
 10 11  2  0
 11 12  1  0
 12 13  2  0
 13 14  1  0
  1 15  1  0
 15 16  2  0
 16 17  1  0
 17 18  2  0
 18 19  1  0
 19 20  1  0
 20 21  2  0
 20 22  1  0
 22 23  1  0
 23 24  1  0
 24 25  1  0
 25 26  1  0
 26 27  2  0
 13  4  1  0
 27 15  1  0
 12  7  1  0
 26 18  1  0
M  END
>  <AAScore>  (1) 
893.0820805563442

>  <RootName>  (1) 
./4ZLY/04_DeltaGEst/trajectory_04/rank_00/lead_0262

$$$$
