confid_16
     RDKit          3D

 28 32  0  0  0  0  0  0  0  0999 V2000
   24.5700   26.8800   35.5900 N   0  0  0  0  0  0  0  0  0  0  0  0
   25.5000   26.4000   34.6900 C   0  0  0  0  0  0  0  0  0  0  0  0
   25.1700   25.5200   33.9100 O   0  0  0  0  0  0  0  0  0  0  0  0
   26.8400   27.0200   34.7400 C   0  0  0  0  0  0  0  0  0  0  0  0
   27.3800   27.2800   35.9400 N   0  0  0  0  0  0  0  0  0  0  0  0
   28.6200   27.7400   36.0300 N   0  0  0  0  0  0  0  0  0  0  0  0
   29.3800   28.0000   34.9600 C   0  0  0  0  0  0  0  0  0  0  0  0
   30.6700   28.5000   35.1300 C   0  0  0  0  0  0  0  0  0  0  0  0
   31.5400   28.6100   34.0300 C   0  0  0  0  0  0  0  0  0  0  0  0
   31.0900   28.2200   32.7700 C   0  0  0  0  0  0  0  0  0  0  0  0
   29.8000   27.7000   32.6000 C   0  0  0  0  0  0  0  0  0  0  0  0
   28.9600   27.5500   33.7100 C   0  0  0  0  0  0  0  0  0  0  0  0
   27.6600   27.0300   33.5900 C   0  0  0  0  0  0  0  0  0  0  0  0
   27.1600   26.7400   32.3400 N   0  0  0  0  0  0  0  0  0  0  0  0
   23.1711   26.5679   35.5233 C   0  0  0  0  0  0  0  0  0  0  0  0
   22.4899   26.1226   36.5996 N   0  0  0  0  0  0  0  0  0  0  0  0
   21.2240   26.0012   36.1610 C   0  0  0  0  0  0  0  0  0  0  0  0
   21.1561   26.3808   34.8377 C   0  0  0  0  0  0  0  0  0  0  0  0
   19.8787   26.5074   34.0616 C   0  0  0  0  0  0  0  0  0  0  0  0
   20.0755   26.1072   32.6597 N   0  0  0  0  0  0  0  0  0  0  0  0
   20.7341   27.0458   31.7938 C   0  0  0  0  0  0  0  0  0  0  0  0
   20.4865   27.0455   30.5578 O   0  0  0  0  0  0  0  0  0  0  0  0
   21.7308   28.0238   32.3478 C   0  0  0  0  0  0  0  0  0  0  0  0
   22.8293   27.2921   33.1272 C   0  0  0  0  0  0  0  0  0  0  0  0
   22.3869   26.7792   34.4366 N   0  0  0  0  0  0  0  0  0  0  0  0
   19.7485   24.7739   32.1042 C   0  0  0  0  0  0  0  0  0  0  0  0
   19.5387   23.6294   33.0885 C   0  0  0  0  0  0  0  0  0  0  0  0
   18.3405   24.2832   32.4067 C   0  0  0  0  0  0  0  0  0  0  0  0
  1  2  1  0
  2  3  2  0
  2  4  1  0
  4  5  2  0
  5  6  1  0
  6  7  2  0
  7  8  1  0
  8  9  2  0
  9 10  1  0
 10 11  2  0
 11 12  1  0
 12 13  2  0
 13 14  1  0
  1 15  1  0
 15 16  2  0
 16 17  1  0
 17 18  2  0
 18 19  1  0
 19 20  1  0
 20 21  1  0
 21 22  2  0
 21 23  1  0
 23 24  1  0
 24 25  1  0
 20 26  1  0
 26 27  1  0
 27 28  1  0
 13  4  1  0
 25 15  1  0
 28 26  1  0
 12  7  1  0
 25 18  1  0
M  END
>  <AAScore>  (1) 
1133.5289765577247

>  <RootName>  (1) 
./4ZLY/04_DeltaGEst/trajectory_05/rank_00/lead_0486

$$$$
