confid_16
     RDKit          3D

 29 32  0  0  0  0  0  0  0  0999 V2000
   24.5700   26.8800   35.5900 N   0  0  0  0  0  0  0  0  0  0  0  0
   25.5000   26.4000   34.6900 C   0  0  0  0  0  0  0  0  0  0  0  0
   25.1700   25.5200   33.9100 O   0  0  0  0  0  0  0  0  0  0  0  0
   26.8400   27.0200   34.7400 C   0  0  0  0  0  0  0  0  0  0  0  0
   27.3800   27.2800   35.9400 N   0  0  0  0  0  0  0  0  0  0  0  0
   28.6200   27.7400   36.0300 N   0  0  0  0  0  0  0  0  0  0  0  0
   29.3800   28.0000   34.9600 C   0  0  0  0  0  0  0  0  0  0  0  0
   30.6700   28.5000   35.1300 C   0  0  0  0  0  0  0  0  0  0  0  0
   31.5400   28.6100   34.0300 C   0  0  0  0  0  0  0  0  0  0  0  0
   31.0900   28.2200   32.7700 C   0  0  0  0  0  0  0  0  0  0  0  0
   29.8000   27.7000   32.6000 C   0  0  0  0  0  0  0  0  0  0  0  0
   28.9600   27.5500   33.7100 C   0  0  0  0  0  0  0  0  0  0  0  0
   27.6600   27.0300   33.5900 C   0  0  0  0  0  0  0  0  0  0  0  0
   27.1600   26.7400   32.3400 N   0  0  0  0  0  0  0  0  0  0  0  0
   23.1675   26.5619   35.5695 C   0  0  0  0  0  0  0  0  0  0  0  0
   22.5016   26.4583   36.7487 N   0  0  0  0  0  0  0  0  0  0  0  0
   21.1747   26.1796   36.8109 C   0  0  0  0  0  0  0  0  0  0  0  0
   20.4274   25.9983   35.6372 C   0  0  0  0  0  0  0  0  0  0  0  0
   18.9513   25.6881   35.7511 C   0  0  0  0  0  0  0  0  0  0  0  0
   18.2089   26.3355   34.6419 N   0  0  0  0  0  0  0  0  0  0  0  0
   17.2070   27.2909   35.1405 C   0  0  0  0  0  0  0  0  0  0  0  0
   17.5789   25.3643   33.7230 C   0  0  0  0  0  0  0  0  0  0  0  0
   18.5529   24.3528   33.1654 C   0  0  0  0  0  0  0  0  0  0  0  0
   19.8024   24.6132   32.9202 N   0  0  0  0  0  0  0  0  0  0  0  0
   20.3949   25.8658   33.1515 N   0  0  0  0  0  0  0  0  0  0  0  0
   21.0945   26.0911   34.3908 C   0  0  0  0  0  0  0  0  0  0  0  0
   22.4610   26.4058   34.3667 C   0  0  0  0  0  0  0  0  0  0  0  0
   20.4364   26.8479   32.0647 C   0  0  0  0  0  0  0  0  0  0  0  0
   21.2416   26.3160   30.8830 C   0  0  0  0  0  0  0  0  0  0  0  0
  1  2  1  0
  2  3  2  0
  2  4  1  0
  4  5  2  0
  5  6  1  0
  6  7  2  0
  7  8  1  0
  8  9  2  0
  9 10  1  0
 10 11  2  0
 11 12  1  0
 12 13  2  0
 13 14  1  0
  1 15  1  0
 15 16  2  0
 16 17  1  0
 17 18  2  0
 18 19  1  0
 19 20  1  0
 20 21  1  0
 20 22  1  0
 22 23  1  0
 23 24  2  0
 24 25  1  0
 25 26  1  0
 26 27  2  0
 25 28  1  0
 28 29  1  0
 13  4  1  0
 27 15  1  0
 12  7  1  0
 26 18  1  0
M  END
>  <AAScore>  (1) 
2816.554983353951

>  <RootName>  (1) 
./4ZLY/04_DeltaGEst/trajectory_05/rank_00/lead_0341

$$$$
