confid_19
     RDKit          3D

 26 28  0  0  0  0  0  0  0  0999 V2000
   24.5700   26.8800   35.5900 N   0  0  0  0  0  0  0  0  0  0  0  0
   25.5000   26.4000   34.6900 C   0  0  0  0  0  0  0  0  0  0  0  0
   25.1700   25.5200   33.9100 O   0  0  0  0  0  0  0  0  0  0  0  0
   26.8400   27.0200   34.7400 C   0  0  0  0  0  0  0  0  0  0  0  0
   27.3800   27.2800   35.9400 N   0  0  0  0  0  0  0  0  0  0  0  0
   28.6200   27.7400   36.0300 N   0  0  0  0  0  0  0  0  0  0  0  0
   29.3800   28.0000   34.9600 C   0  0  0  0  0  0  0  0  0  0  0  0
   30.6700   28.5000   35.1300 C   0  0  0  0  0  0  0  0  0  0  0  0
   31.5400   28.6100   34.0300 C   0  0  0  0  0  0  0  0  0  0  0  0
   31.0900   28.2200   32.7700 C   0  0  0  0  0  0  0  0  0  0  0  0
   29.8000   27.7000   32.6000 C   0  0  0  0  0  0  0  0  0  0  0  0
   28.9600   27.5500   33.7100 C   0  0  0  0  0  0  0  0  0  0  0  0
   27.6600   27.0300   33.5900 C   0  0  0  0  0  0  0  0  0  0  0  0
   27.1600   26.7400   32.3400 N   0  0  0  0  0  0  0  0  0  0  0  0
   33.1667   29.2438   34.2564 S   0  0  0  0  0  6  0  0  0  0  0  0
   33.9561   29.1070   32.9838 O   0  0  0  0  0  0  0  0  0  0  0  0
   33.8556   28.4624   35.3396 O   0  0  0  0  0  0  0  0  0  0  0  0
   33.0685   30.9678   34.7065 C   0  0  0  0  0  0  0  0  0  0  0  0
   34.4460   31.5394   34.9031 C   0  0  0  0  0  0  0  0  0  0  0  0
   35.1359   32.0939   33.8113 C   0  0  0  0  0  0  0  0  0  0  0  0
   36.4325   32.6054   33.9736 C   0  0  0  0  0  0  0  0  0  0  0  0
   37.1701   33.1718   32.7964 C   0  0  0  0  0  0  0  0  0  0  0  0
   37.0557   32.5221   35.2279 C   0  0  0  0  0  0  0  0  0  0  0  0
   36.3794   31.9616   36.3133 C   0  0  0  0  0  0  0  0  0  0  0  0
   35.0811   31.4688   36.1568 C   0  0  0  0  0  0  0  0  0  0  0  0
   34.4531   30.9071   37.2205 F   0  0  0  0  0  0  0  0  0  0  0  0
  1  2  1  0
  2  3  2  0
  2  4  1  0
  4  5  2  0
  5  6  1  0
  6  7  2  0
  7  8  1  0
  8  9  2  0
  9 10  1  0
 10 11  2  0
 11 12  1  0
 12 13  2  0
 13 14  1  0
  9 15  1  0
 15 16  2  0
 15 17  2  0
 15 18  1  0
 18 19  1  0
 19 20  2  0
 20 21  1  0
 21 22  1  0
 21 23  2  0
 23 24  1  0
 24 25  2  0
 25 26  1  0
 13  4  1  0
 25 19  1  0
 12  7  1  0
M  END
>  <AAScore>  (1) 
-4.6948383577103

>  <RootName>  (1) 
./4ZLY/04_DeltaGEst/trajectory_05/rank_01/lead_0065

$$$$
