confid_17
     RDKit          3D

 30 33  0  0  0  0  0  0  0  0999 V2000
   24.5500   26.3900   36.2500 N   0  0  0  0  0  0  0  0  0  0  0  0
   25.6000   26.1300   35.4000 C   0  0  0  0  0  0  0  0  0  0  0  0
   25.4300   25.4300   34.4200 O   0  0  0  0  0  0  0  0  0  0  0  0
   26.9800   26.6300   35.7100 C   0  0  0  0  0  0  0  0  0  0  0  0
   27.3200   26.8200   36.9800 N   0  0  0  0  0  0  0  0  0  0  0  0
   28.4700   27.4000   37.3100 N   0  0  0  0  0  0  0  0  0  0  0  0
   29.4000   27.6300   36.3700 C   0  0  0  0  0  0  0  0  0  0  0  0
   30.6600   28.0500   36.8000 C   0  0  0  0  0  0  0  0  0  0  0  0
   31.5700   28.3600   35.7800 C   0  0  0  0  0  0  0  0  0  0  0  0
   31.3700   28.1000   34.4300 C   0  0  0  0  0  0  0  0  0  0  0  0
   30.1200   27.5900   34.0500 C   0  0  0  0  0  0  0  0  0  0  0  0
   29.1500   27.3400   35.0300 C   0  0  0  0  0  0  0  0  0  0  0  0
   27.8800   26.8900   34.6600 C   0  0  0  0  0  0  0  0  0  0  0  0
   27.4800   26.6100   33.3700 N   0  0  0  0  0  0  0  0  0  0  0  0
   30.9966   28.3242   38.2175 C   0  0  0  0  0  0  0  0  0  0  0  0
   30.2040   29.1848   38.9900 C   0  0  0  0  0  0  0  0  0  0  0  0
   30.5090   29.4430   40.3379 C   0  0  0  0  0  0  0  0  0  0  0  0
   29.5659   30.3478   41.1069 C   0  0  0  0  0  0  0  0  0  0  0  0
   28.2321   29.7336   41.2662 N   0  0  0  0  0  0  0  0  0  0  0  0
   28.0202   28.6480   42.2030 C   0  0  0  0  0  0  0  0  0  0  0  0
   26.8618   28.4185   42.6468 O   0  0  0  0  0  0  0  0  0  0  0  0
   29.1449   27.7732   42.6700 C   0  0  0  0  0  0  0  0  0  0  0  0
   30.0175   28.5362   43.4791 O   0  0  0  0  0  0  0  0  0  0  0  0
   31.3628   28.1326   43.3153 C   0  0  0  0  0  0  0  0  0  0  0  0
   32.0971   29.0692   42.3476 C   0  0  0  0  0  0  0  0  0  0  0  0
   31.6736   28.8527   40.9086 C   0  0  0  0  0  0  0  0  0  0  0  0
   32.4587   27.9930   40.1192 C   0  0  0  0  0  0  0  0  0  0  0  0
   32.1287   27.7376   38.7896 C   0  0  0  0  0  0  0  0  0  0  0  0
   27.0603   30.3760   40.6434 C   0  0  0  0  0  0  0  0  0  0  0  0
   26.3792   29.4398   39.6475 C   0  0  0  0  0  0  0  0  0  0  0  0
  1  2  1  0
  2  3  2  0
  2  4  1  0
  4  5  2  0
  5  6  1  0
  6  7  2  0
  7  8  1  0
  8  9  2  0
  9 10  1  0
 10 11  2  0
 11 12  1  0
 12 13  2  0
 13 14  1  0
  8 15  1  0
 15 16  2  0
 16 17  1  0
 17 18  1  0
 18 19  1  0
 19 20  1  0
 20 21  2  0
 20 22  1  0
 22 23  1  0
 23 24  1  0
 24 25  1  0
 25 26  1  0
 26 27  1  0
 27 28  2  0
 19 29  1  0
 29 30  1  0
 13  4  1  0
 28 15  1  0
 12  7  1  0
 26 17  2  0
M  END
>  <AAScore>  (1) 
94.99457207038334

>  <RootName>  (1) 
./4ZLY/04_DeltaGEst/trajectory_01/rank_01/lead_0015

$$$$
