confid_15
     RDKit          3D

 28 31  0  0  0  0  0  0  0  0999 V2000
   24.2000   26.2400   35.6900 N   0  0  0  0  0  0  0  0  0  0  0  0
   24.8500   26.2800   34.4800 C   0  0  0  0  0  0  0  0  0  0  0  0
   24.3100   25.7400   33.5400 O   0  0  0  0  0  0  0  0  0  0  0  0
   26.1800   26.9700   34.4700 C   0  0  0  0  0  0  0  0  0  0  0  0
   26.6500   27.6000   35.5500 N   0  0  0  0  0  0  0  0  0  0  0  0
   27.7900   28.2700   35.6200 N   0  0  0  0  0  0  0  0  0  0  0  0
   28.5400   28.3000   34.5100 C   0  0  0  0  0  0  0  0  0  0  0  0
   29.7700   28.9400   34.5600 C   0  0  0  0  0  0  0  0  0  0  0  0
   30.7000   28.8900   33.5000 C   0  0  0  0  0  0  0  0  0  0  0  0
   30.3700   28.1400   32.3700 C   0  0  0  0  0  0  0  0  0  0  0  0
   29.1200   27.5200   32.2800 C   0  0  0  0  0  0  0  0  0  0  0  0
   28.2100   27.6100   33.3300 C   0  0  0  0  0  0  0  0  0  0  0  0
   26.9700   26.9700   33.3100 C   0  0  0  0  0  0  0  0  0  0  0  0
   26.5300   26.2400   32.2200 N   0  0  0  0  0  0  0  0  0  0  0  0
   22.7918   25.9756   35.8382 C   0  0  0  0  0  0  0  0  0  0  0  0
   21.9179   25.9346   34.8112 N   0  0  0  0  0  0  0  0  0  0  0  0
   20.7242   25.7278   35.4072 C   0  0  0  0  0  0  0  0  0  0  0  0
   19.4446   25.6070   34.6415 C   0  0  0  0  0  0  0  0  0  0  0  0
   18.4376   26.6802   35.0650 C   0  0  0  0  0  0  0  0  0  0  0  0
   17.7706   26.3215   36.3373 N   0  0  0  0  0  0  0  0  0  0  0  0
   18.6419   26.5701   37.5086 C   0  0  0  0  0  0  0  0  0  0  0  0
   19.6843   25.4583   37.6751 C   0  0  0  0  0  0  0  0  0  0  0  0
   20.8082   25.6521   36.7537 N   0  0  0  0  0  0  0  0  0  0  0  0
   22.1233   25.7916   37.0368 C   0  0  0  0  0  0  0  0  0  0  0  0
   22.7385   25.8056   38.4130 C   0  0  0  0  0  0  0  0  0  0  0  0
   22.8020   27.2238   38.9720 C   0  0  0  0  0  0  0  0  0  0  0  0
   21.5278   27.7335   39.1436 F   0  0  0  0  0  0  0  0  0  0  0  0
   16.5252   27.0977   36.4748 C   0  0  0  0  0  0  0  0  0  0  0  0
  1  2  1  0
  2  3  2  0
  2  4  1  0
  4  5  2  0
  5  6  1  0
  6  7  2  0
  7  8  1  0
  8  9  2  0
  9 10  1  0
 10 11  2  0
 11 12  1  0
 12 13  2  0
 13 14  1  0
  1 15  1  0
 15 16  1  0
 16 17  2  0
 17 18  1  0
 18 19  1  0
 19 20  1  0
 20 21  1  0
 21 22  1  0
 22 23  1  0
 23 24  1  0
 24 25  1  0
 25 26  1  0
 26 27  1  0
 20 28  1  0
 13  4  1  0
 24 15  2  0
 12  7  1  0
 23 17  1  0
M  END
>  <AAScore>  (1) 
695.5296018338692

>  <RootName>  (1) 
./4ZLY/04_DeltaGEst/trajectory_04/rank_00/lead_0367

$$$$
