confid_14
     RDKit          3D

 30 33  0  0  0  0  0  0  0  0999 V2000
   25.3300   26.2600   34.7600 N   0  0  0  0  0  0  0  0  0  0  0  0
   26.1200   25.9200   33.6900 C   0  0  0  0  0  0  0  0  0  0  0  0
   25.6300   25.1100   32.9400 O   0  0  0  0  0  0  0  0  0  0  0  0
   27.5200   26.3800   33.4600 C   0  0  0  0  0  0  0  0  0  0  0  0
   28.1600   26.6300   34.6100 N   0  0  0  0  0  0  0  0  0  0  0  0
   29.4800   26.8500   34.5700 N   0  0  0  0  0  0  0  0  0  0  0  0
   30.1900   26.7800   33.4400 C   0  0  0  0  0  0  0  0  0  0  0  0
   31.5600   27.0500   33.5000 C   0  0  0  0  0  0  0  0  0  0  0  0
   32.2700   27.2400   32.3100 C   0  0  0  0  0  0  0  0  0  0  0  0
   31.6100   27.2500   31.0800 C   0  0  0  0  0  0  0  0  0  0  0  0
   30.2700   26.8700   31.0600 C   0  0  0  0  0  0  0  0  0  0  0  0
   29.5100   26.6900   32.2300 C   0  0  0  0  0  0  0  0  0  0  0  0
   28.1400   26.4100   32.2000 C   0  0  0  0  0  0  0  0  0  0  0  0
   27.4300   26.1300   31.0500 N   0  0  0  0  0  0  0  0  0  0  0  0
   24.2127   25.4785   35.2385 C   0  0  0  0  0  0  0  0  0  0  0  0
   24.1596   24.1449   34.9726 N   0  0  0  0  0  0  0  0  0  0  0  0
   23.1541   23.3457   35.4162 C   0  0  0  0  0  0  0  0  0  0  0  0
   23.1172   21.9054   35.0101 C   0  0  0  0  0  0  0  0  0  0  0  0
   22.0778   21.6930   33.9931 N   0  0  0  0  0  0  0  0  0  0  0  0
   22.4751   21.1358   32.6907 C   0  0  0  0  0  0  0  0  0  0  0  0
   20.6656   21.9906   34.1966 C   0  0  0  0  0  0  0  0  0  0  0  0
   19.8545   21.7073   33.2678 O   0  0  0  0  0  0  0  0  0  0  0  0
   20.0502   22.6604   35.4220 C   0  0  0  0  0  0  0  0  0  0  0  0
   19.0659   21.8175   35.9075 F   0  0  0  0  0  0  0  0  0  0  0  0
   19.4292   23.8243   34.9960 F   0  0  0  0  0  0  0  0  0  0  0  0
   20.9643   23.0202   36.6007 C   0  0  0  0  0  0  0  0  0  0  0  0
   22.1139   23.8894   36.1724 C   0  0  0  0  0  0  0  0  0  0  0  0
   22.1361   25.2586   36.4684 C   0  0  0  0  0  0  0  0  0  0  0  0
   23.1848   26.0694   36.0067 C   0  0  0  0  0  0  0  0  0  0  0  0
   23.1956   27.5358   36.3385 C   0  0  0  0  0  0  0  0  0  0  0  0
  1  2  1  0
  2  3  2  0
  2  4  1  0
  4  5  2  0
  5  6  1  0
  6  7  2  0
  7  8  1  0
  8  9  2  0
  9 10  1  0
 10 11  2  0
 11 12  1  0
 12 13  2  0
 13 14  1  0
  1 15  1  0
 15 16  2  0
 16 17  1  0
 17 18  1  0
 18 19  1  0
 19 20  1  0
 19 21  1  0
 21 22  2  0
 21 23  1  0
 23 24  1  0
 23 25  1  0
 23 26  1  0
 26 27  1  0
 27 28  1  0
 28 29  2  0
 29 30  1  0
 13  4  1  0
 29 15  1  0
 12  7  1  0
 27 17  2  0
M  END
>  <AAScore>  (1) 
3619.099095679809

>  <RootName>  (1) 
./4ZLY/04_DeltaGEst/trajectory_03/rank_00/lead_0107

$$$$
