confid_5
     RDKit          3D

 29 32  0  0  0  0  0  0  0  0999 V2000
   24.6900   26.1200   35.5300 N   0  0  0  0  0  0  0  0  0  0  0  0
   25.6600   25.6700   34.6600 C   0  0  0  0  0  0  0  0  0  0  0  0
   25.2400   25.0100   33.7200 O   0  0  0  0  0  0  0  0  0  0  0  0
   27.0300   26.2200   34.8800 C   0  0  0  0  0  0  0  0  0  0  0  0
   27.3500   26.7300   36.0700 N   0  0  0  0  0  0  0  0  0  0  0  0
   28.5700   27.1800   36.3300 N   0  0  0  0  0  0  0  0  0  0  0  0
   29.5300   27.1100   35.3900 C   0  0  0  0  0  0  0  0  0  0  0  0
   30.8300   27.5700   35.6500 C   0  0  0  0  0  0  0  0  0  0  0  0
   31.8500   27.5400   34.6900 C   0  0  0  0  0  0  0  0  0  0  0  0
   31.5100   27.1200   33.4000 C   0  0  0  0  0  0  0  0  0  0  0  0
   30.2200   26.6300   33.1100 C   0  0  0  0  0  0  0  0  0  0  0  0
   29.2400   26.6600   34.1000 C   0  0  0  0  0  0  0  0  0  0  0  0
   27.9300   26.2600   33.8100 C   0  0  0  0  0  0  0  0  0  0  0  0
   27.5200   25.7100   32.6100 N   0  0  0  0  0  0  0  0  0  0  0  0
   23.3180   25.6869   35.4851 C   0  0  0  0  0  0  0  0  0  0  0  0
   22.6546   25.8944   34.3794 N   0  0  0  0  0  0  0  0  0  0  0  0
   21.2678   25.6374   34.1429 C   0  0  0  0  0  0  0  0  0  0  0  0
   20.3286   25.8557   35.0656 C   0  0  0  0  0  0  0  0  0  0  0  0
   19.0224   25.5254   34.8755 O   0  0  0  0  0  0  0  0  0  0  0  0
   18.2976   25.8435   36.0415 C   0  0  0  0  0  0  0  0  0  0  0  0
   19.1994   26.3585   37.0105 O   0  0  0  0  0  0  0  0  0  0  0  0
   20.4804   26.4871   36.4051 C   0  0  2  0  0  0  0  0  0  0  0  0
   20.7511   28.0086   36.2681 C   0  0  0  0  0  0  0  0  0  0  0  0
   22.0571   28.2560   35.7914 O   0  0  0  0  0  0  0  0  0  0  0  0
   22.2467   29.6434   35.6366 C   0  0  0  0  0  0  0  0  0  0  0  0
   21.5217   25.7857   37.3372 C   0  0  0  0  0  0  0  0  0  0  0  0
   22.6994   24.9726   36.7020 C   0  0  0  0  0  0  0  0  0  0  0  0
   22.2416   23.5439   36.3032 C   0  0  0  0  0  0  0  0  0  0  0  0
   23.7706   24.7761   37.8092 C   0  0  0  0  0  0  0  0  0  0  0  0
  1  2  1  0
  2  3  2  0
  2  4  1  0
  4  5  2  0
  5  6  1  0
  6  7  2  0
  7  8  1  0
  8  9  2  0
  9 10  1  0
 10 11  2  0
 11 12  1  0
 12 13  2  0
 13 14  1  0
  1 15  1  0
 15 16  2  0
 16 17  1  0
 17 18  2  0
 18 19  1  0
 19 20  1  0
 20 21  1  0
 21 22  1  0
 22 23  1  6
 23 24  1  0
 24 25  1  0
 22 26  1  0
 26 27  1  0
 27 28  1  0
 27 29  1  0
 13  4  1  0
 27 15  1  0
 12  7  1  0
 22 18  1  0
M  END
>  <AAScore>  (1) 
2170.8946205567786

>  <RootName>  (1) 
./4ZLY/04_DeltaGEst/trajectory_02/rank_00/lead_0248

$$$$
