confid_2
     RDKit          3D

 29 33  0  0  0  0  0  0  0  0999 V2000
   25.3300   26.2600   34.7600 N   0  0  0  0  0  0  0  0  0  0  0  0
   26.1200   25.9200   33.6900 C   0  0  0  0  0  0  0  0  0  0  0  0
   25.6300   25.1100   32.9400 O   0  0  0  0  0  0  0  0  0  0  0  0
   27.5200   26.3800   33.4600 C   0  0  0  0  0  0  0  0  0  0  0  0
   28.1600   26.6300   34.6100 N   0  0  0  0  0  0  0  0  0  0  0  0
   29.4800   26.8500   34.5700 N   0  0  0  0  0  0  0  0  0  0  0  0
   30.1900   26.7800   33.4400 C   0  0  0  0  0  0  0  0  0  0  0  0
   31.5600   27.0500   33.5000 C   0  0  0  0  0  0  0  0  0  0  0  0
   32.2700   27.2400   32.3100 C   0  0  0  0  0  0  0  0  0  0  0  0
   31.6100   27.2500   31.0800 C   0  0  0  0  0  0  0  0  0  0  0  0
   30.2700   26.8700   31.0600 C   0  0  0  0  0  0  0  0  0  0  0  0
   29.5100   26.6900   32.2300 C   0  0  0  0  0  0  0  0  0  0  0  0
   28.1400   26.4100   32.2000 C   0  0  0  0  0  0  0  0  0  0  0  0
   27.4300   26.1300   31.0500 N   0  0  0  0  0  0  0  0  0  0  0  0
   26.5196   27.1357   30.4937 C   0  0  0  0  0  0  0  0  0  0  0  0
   26.6327   27.1507   28.9674 C   0  0  0  0  0  0  0  0  0  0  0  0
   26.5341   25.7941   28.4017 N   0  0  0  0  0  0  0  0  0  0  0  0
   26.2743   25.6327   26.9900 C   0  0  0  0  0  0  0  0  0  0  0  0
   25.3630   24.6607   26.5354 C   0  0  0  0  0  0  0  0  0  0  0  0
   25.1015   24.4990   25.1645 C   0  0  0  0  0  0  0  0  0  0  0  0
   24.1085   23.4369   24.7254 C   0  0  0  0  0  0  0  0  0  0  0  0
   24.5721   22.5558   23.5856 C   0  0  0  0  0  0  0  0  0  0  0  0
   23.5842   23.0514   22.7122 O   0  0  0  0  0  0  0  0  0  0  0  0
   23.0779   23.8981   23.7177 C   0  0  0  0  0  0  0  0  0  0  0  0
   25.7659   25.3299   24.2417 C   0  0  0  0  0  0  0  0  0  0  0  0
   26.6674   26.2984   24.6849 C   0  0  0  0  0  0  0  0  0  0  0  0
   26.9206   26.4519   26.0487 C   0  0  0  0  0  0  0  0  0  0  0  0
   26.5503   24.6203   29.2890 C   0  0  0  0  0  0  0  0  0  0  0  0
   27.5668   24.8093   30.4202 C   0  0  0  0  0  0  0  0  0  0  0  0
  1  2  1  0
  2  3  2  0
  2  4  1  0
  4  5  2  0
  5  6  1  0
  6  7  2  0
  7  8  1  0
  8  9  2  0
  9 10  1  0
 10 11  2  0
 11 12  1  0
 12 13  2  0
 13 14  1  0
 14 15  1  0
 15 16  1  0
 16 17  1  0
 17 18  1  0
 18 19  2  0
 19 20  1  0
 20 21  1  0
 21 22  1  0
 22 23  1  0
 23 24  1  0
 20 25  2  0
 25 26  1  0
 26 27  2  0
 17 28  1  0
 28 29  1  0
 13  4  1  0
 29 14  1  0
 12  7  1  0
 27 18  1  0
 24 21  1  0
M  END
>  <AAScore>  (1) 
2.470581441235752

>  <RootName>  (1) 
./4ZLY/04_DeltaGEst/trajectory_03/rank_01/lead_0435

$$$$
