confid_14
     RDKit          3D

 28 31  0  0  0  0  0  0  0  0999 V2000
   24.5700   26.8800   35.5900 N   0  0  0  0  0  0  0  0  0  0  0  0
   25.5000   26.4000   34.6900 C   0  0  0  0  0  0  0  0  0  0  0  0
   25.1700   25.5200   33.9100 O   0  0  0  0  0  0  0  0  0  0  0  0
   26.8400   27.0200   34.7400 C   0  0  0  0  0  0  0  0  0  0  0  0
   27.3800   27.2800   35.9400 N   0  0  0  0  0  0  0  0  0  0  0  0
   28.6200   27.7400   36.0300 N   0  0  0  0  0  0  0  0  0  0  0  0
   29.3800   28.0000   34.9600 C   0  0  0  0  0  0  0  0  0  0  0  0
   30.6700   28.5000   35.1300 C   0  0  0  0  0  0  0  0  0  0  0  0
   31.5400   28.6100   34.0300 C   0  0  0  0  0  0  0  0  0  0  0  0
   31.0900   28.2200   32.7700 C   0  0  0  0  0  0  0  0  0  0  0  0
   29.8000   27.7000   32.6000 C   0  0  0  0  0  0  0  0  0  0  0  0
   28.9600   27.5500   33.7100 C   0  0  0  0  0  0  0  0  0  0  0  0
   27.6600   27.0300   33.5900 C   0  0  0  0  0  0  0  0  0  0  0  0
   27.1600   26.7400   32.3400 N   0  0  0  0  0  0  0  0  0  0  0  0
   33.1539   29.2796   34.2529 S   0  0  0  0  0  6  0  0  0  0  0  0
   33.9334   29.2003   32.9693 O   0  0  0  0  0  0  0  0  0  0  0  0
   33.8711   28.4831   35.3067 O   0  0  0  0  0  0  0  0  0  0  0  0
   33.0111   30.9948   34.7673 C   0  0  1  0  0  0  0  0  0  0  0  0
   34.4019   31.5431   35.1404 C   0  0  0  0  0  0  0  0  0  0  0  0
   34.3827   33.0039   35.3807 N   0  0  0  0  0  0  0  0  0  0  0  0
   33.7001   33.3559   36.6469 C   0  0  0  0  0  0  0  0  0  0  0  0
   32.1743   33.5149   36.4486 C   0  0  0  0  0  0  0  0  0  0  0  0
   31.5026   34.2237   37.6322 C   0  0  0  0  0  0  0  0  0  0  0  0
   31.2475   32.7482   37.3953 C   0  0  0  0  0  0  0  0  0  0  0  0
   31.6154   33.9131   35.0590 C   0  0  0  0  0  0  0  0  0  0  0  0
   31.1732   32.7119   34.2013 C   0  0  0  0  0  0  0  0  0  0  0  0
   32.3271   31.8481   33.6653 C   0  0  0  0  0  0  0  0  0  0  0  0
   35.7633   33.5183   35.3893 C   0  0  0  0  0  0  0  0  0  0  0  0
  1  2  1  0
  2  3  2  0
  2  4  1  0
  4  5  2  0
  5  6  1  0
  6  7  2  0
  7  8  1  0
  8  9  2  0
  9 10  1  0
 10 11  2  0
 11 12  1  0
 12 13  2  0
 13 14  1  0
  9 15  1  0
 15 16  2  0
 15 17  2  0
 18 15  1  6
 18 19  1  0
 19 20  1  0
 20 21  1  0
 21 22  1  0
 22 23  1  0
 23 24  1  0
 22 25  1  0
 25 26  1  0
 26 27  1  0
 20 28  1  0
 13  4  1  0
 27 18  1  0
 12  7  1  0
 24 22  1  0
M  END
>  <AAScore>  (1) 
-6.94125141588521

>  <RootName>  (1) 
./4ZLY/04_DeltaGEst/trajectory_05/rank_01/lead_0142

$$$$
