confid_12
     RDKit          3D

 28 32  0  0  0  0  0  0  0  0999 V2000
   24.4800   26.1000   36.1300 N   0  0  0  0  0  0  0  0  0  0  0  0
   25.2500   26.2500   34.9900 C   0  0  0  0  0  0  0  0  0  0  0  0
   24.7400   25.7600   33.9900 O   0  0  0  0  0  0  0  0  0  0  0  0
   26.5900   26.8900   34.9600 C   0  0  0  0  0  0  0  0  0  0  0  0
   27.0600   27.2400   36.1600 N   0  0  0  0  0  0  0  0  0  0  0  0
   28.3000   27.7100   36.2400 N   0  0  0  0  0  0  0  0  0  0  0  0
   29.0500   27.9600   35.1500 C   0  0  0  0  0  0  0  0  0  0  0  0
   30.3400   28.4900   35.2600 C   0  0  0  0  0  0  0  0  0  0  0  0
   31.1100   28.8200   34.1400 C   0  0  0  0  0  0  0  0  0  0  0  0
   30.5200   28.6700   32.8800 C   0  0  0  0  0  0  0  0  0  0  0  0
   29.2900   28.0200   32.7700 C   0  0  0  0  0  0  0  0  0  0  0  0
   28.5200   27.7100   33.8900 C   0  0  0  0  0  0  0  0  0  0  0  0
   27.2700   27.0800   33.7600 C   0  0  0  0  0  0  0  0  0  0  0  0
   26.7500   26.8800   32.4900 N   0  0  0  0  0  0  0  0  0  0  0  0
   23.0598   25.8679   36.1570 C   0  0  0  0  0  0  0  0  0  0  0  0
   22.3749   26.3697   37.1477 N   0  0  0  0  0  0  0  0  0  0  0  0
   20.9614   26.2318   37.3154 C   0  0  0  0  0  0  0  0  0  0  0  0
   20.1322   26.6242   36.3566 C   0  0  0  0  0  0  0  0  0  0  0  0
   18.6774   26.5771   35.9989 C   0  0  0  0  0  0  0  0  0  0  0  0
   18.8368   27.1646   34.7444 O   0  0  0  0  0  0  0  0  0  0  0  0
   20.1947   27.3081   35.0168 C   0  0  2  0  0  0  0  0  0  0  0  0
   21.0871   26.6403   33.9454 C   0  0  0  0  0  0  0  0  0  0  0  0
   21.5270   25.2349   34.2684 C   0  0  0  0  0  0  0  0  0  0  0  0
   22.4305   24.9149   35.2060 C   0  0  0  0  0  0  0  0  0  0  0  0
   22.7565   23.4605   35.2123 C   0  0  0  0  0  0  0  0  0  0  0  0
   21.8948   22.9688   34.1047 C   0  0  0  0  0  0  0  0  0  0  0  0
   21.8605   21.8022   33.7415 O   0  0  0  0  0  0  0  0  0  0  0  0
   21.0972   24.0522   33.4702 C   0  0  0  0  0  0  0  0  0  0  0  0
  1  2  1  0
  2  3  2  0
  2  4  1  0
  4  5  2  0
  5  6  1  0
  6  7  2  0
  7  8  1  0
  8  9  2  0
  9 10  1  0
 10 11  2  0
 11 12  1  0
 12 13  2  0
 13 14  1  0
  1 15  1  0
 15 16  2  0
 16 17  1  0
 17 18  2  0
 18 19  1  0
 19 20  1  0
 20 21  1  0
 21 22  1  6
 22 23  1  0
 23 24  2  0
 24 25  1  0
 25 26  1  0
 26 27  2  0
 26 28  1  0
 13  4  1  0
 24 15  1  0
 12  7  1  0
 21 18  1  0
 28 23  1  0
M  END
>  <AAScore>  (1) 
1281.628761443846

>  <RootName>  (1) 
./4ZLY/04_DeltaGEst/trajectory_00/rank_01/lead_0311

$$$$
