confid_17
     RDKit          3D

 28 31  0  0  0  0  0  0  0  0999 V2000
   24.4800   26.1000   36.1300 N   0  0  0  0  0  0  0  0  0  0  0  0
   25.2500   26.2500   34.9900 C   0  0  0  0  0  0  0  0  0  0  0  0
   24.7400   25.7600   33.9900 O   0  0  0  0  0  0  0  0  0  0  0  0
   26.5900   26.8900   34.9600 C   0  0  0  0  0  0  0  0  0  0  0  0
   27.0600   27.2400   36.1600 N   0  0  0  0  0  0  0  0  0  0  0  0
   28.3000   27.7100   36.2400 N   0  0  0  0  0  0  0  0  0  0  0  0
   29.0500   27.9600   35.1500 C   0  0  0  0  0  0  0  0  0  0  0  0
   30.3400   28.4900   35.2600 C   0  0  0  0  0  0  0  0  0  0  0  0
   31.1100   28.8200   34.1400 C   0  0  0  0  0  0  0  0  0  0  0  0
   30.5200   28.6700   32.8800 C   0  0  0  0  0  0  0  0  0  0  0  0
   29.2900   28.0200   32.7700 C   0  0  0  0  0  0  0  0  0  0  0  0
   28.5200   27.7100   33.8900 C   0  0  0  0  0  0  0  0  0  0  0  0
   27.2700   27.0800   33.7600 C   0  0  0  0  0  0  0  0  0  0  0  0
   26.7500   26.8800   32.4900 N   0  0  0  0  0  0  0  0  0  0  0  0
   23.4409   25.1187   36.3233 C   0  0  0  0  0  0  0  0  0  0  0  0
   23.2755   24.0865   35.4403 N   0  0  0  0  0  0  0  0  0  0  0  0
   22.3011   23.1636   35.6418 C   0  0  0  0  0  0  0  0  0  0  0  0
   22.0245   21.9763   34.8132 C   0  0  0  0  0  0  0  0  0  0  0  0
   20.7894   21.3999   35.3884 N   0  0  0  0  0  0  0  0  0  0  0  0
   20.7690   19.9292   35.3469 C   0  0  0  0  0  0  0  0  0  0  0  0
   20.5465   22.0435   36.7161 C   0  0  2  0  0  0  0  0  0  0  0  0
   19.0925   22.5478   36.7495 C   0  0  0  0  0  0  0  0  0  0  0  0
   21.4753   23.2140   36.7230 C   0  0  0  0  0  0  0  0  0  0  0  0
   21.6160   24.2301   37.6696 C   0  0  0  0  0  0  0  0  0  0  0  0
   22.6099   25.1973   37.4635 C   0  0  0  0  0  0  0  0  0  0  0  0
   20.8548   21.1341   37.9150 C   0  0  0  0  0  0  0  0  0  0  0  0
   19.9405   20.6751   38.5848 O   0  0  0  0  0  0  0  0  0  0  0  0
   22.2622   20.7497   38.2854 C   0  0  0  0  0  0  0  0  0  0  0  0
  1  2  1  0
  2  3  2  0
  2  4  1  0
  4  5  2  0
  5  6  1  0
  6  7  2  0
  7  8  1  0
  8  9  2  0
  9 10  1  0
 10 11  2  0
 11 12  1  0
 12 13  2  0
 13 14  1  0
  1 15  1  0
 15 16  2  0
 16 17  1  0
 17 18  1  0
 18 19  1  0
 19 20  1  0
 19 21  1  0
 21 22  1  6
 21 23  1  0
 23 24  1  0
 24 25  2  0
 21 26  1  0
 26 27  2  0
 26 28  1  0
 13  4  1  0
 25 15  1  0
 12  7  1  0
 23 17  2  0
M  END
>  <AAScore>  (1) 
525.9030525973837

>  <RootName>  (1) 
./4ZLY/04_DeltaGEst/trajectory_00/rank_01/lead_0106

$$$$
