confid_12
     RDKit          3D

 28 31  0  0  0  0  0  0  0  0999 V2000
   24.5500   26.3900   36.2500 N   0  0  0  0  0  0  0  0  0  0  0  0
   25.6000   26.1300   35.4000 C   0  0  0  0  0  0  0  0  0  0  0  0
   25.4300   25.4300   34.4200 O   0  0  0  0  0  0  0  0  0  0  0  0
   26.9800   26.6300   35.7100 C   0  0  0  0  0  0  0  0  0  0  0  0
   27.3200   26.8200   36.9800 N   0  0  0  0  0  0  0  0  0  0  0  0
   28.4700   27.4000   37.3100 N   0  0  0  0  0  0  0  0  0  0  0  0
   29.4000   27.6300   36.3700 C   0  0  0  0  0  0  0  0  0  0  0  0
   30.6600   28.0500   36.8000 C   0  0  0  0  0  0  0  0  0  0  0  0
   31.5700   28.3600   35.7800 C   0  0  0  0  0  0  0  0  0  0  0  0
   31.3700   28.1000   34.4300 C   0  0  0  0  0  0  0  0  0  0  0  0
   30.1200   27.5900   34.0500 C   0  0  0  0  0  0  0  0  0  0  0  0
   29.1500   27.3400   35.0300 C   0  0  0  0  0  0  0  0  0  0  0  0
   27.8800   26.8900   34.6600 C   0  0  0  0  0  0  0  0  0  0  0  0
   27.4800   26.6100   33.3700 N   0  0  0  0  0  0  0  0  0  0  0  0
   30.9666   28.3069   38.1790 N   0  0  0  0  0  0  0  0  0  0  0  0
   30.2920   29.3928   38.8990 C   0  0  0  0  0  0  0  0  0  0  0  0
   29.8048   28.8880   40.2602 C   0  0  0  0  0  0  0  0  0  0  0  0
   30.8257   28.0635   40.9216 N   0  0  0  0  0  0  0  0  0  0  0  0
   30.5836   27.5949   42.2556 C   0  0  0  0  0  0  0  0  0  0  0  0
   31.1710   28.2776   43.3276 C   0  0  0  0  0  0  0  0  0  0  0  0
   30.9367   27.8692   44.6380 C   0  0  0  0  0  0  0  0  0  0  0  0
   30.1039   26.7813   44.8936 C   0  0  0  0  0  0  0  0  0  0  0  0
   29.4979   26.0803   43.8377 C   0  0  0  0  0  0  0  0  0  0  0  0
   28.6054   24.9097   44.1601 C   0  0  0  0  0  0  0  0  0  0  0  0
   29.7661   26.4639   42.4977 C   0  0  0  0  0  0  0  0  0  0  0  0
   29.1559   25.7018   41.3434 C   0  0  0  0  0  0  0  0  0  0  0  0
   32.1497   27.8788   40.3180 C   0  0  0  0  0  0  0  0  0  0  0  0
   32.0035   27.5031   38.8389 C   0  0  0  0  0  0  0  0  0  0  0  0
  1  2  1  0
  2  3  2  0
  2  4  1  0
  4  5  2  0
  5  6  1  0
  6  7  2  0
  7  8  1  0
  8  9  2  0
  9 10  1  0
 10 11  2  0
 11 12  1  0
 12 13  2  0
 13 14  1  0
  8 15  1  0
 15 16  1  0
 16 17  1  0
 17 18  1  0
 18 19  1  0
 19 20  2  0
 20 21  1  0
 21 22  2  0
 22 23  1  0
 23 24  1  0
 23 25  2  0
 25 26  1  0
 18 27  1  0
 27 28  1  0
 13  4  1  0
 28 15  1  0
 12  7  1  0
 25 19  1  0
M  END
>  <AAScore>  (1) 
390.4088485886322

>  <RootName>  (1) 
./4ZLY/04_DeltaGEst/trajectory_01/rank_01/lead_0113

$$$$
