confid_12
     RDKit          3D

 27 30  0  0  0  0  0  0  0  0999 V2000
   24.5500   26.3900   36.2500 N   0  0  0  0  0  0  0  0  0  0  0  0
   25.6000   26.1300   35.4000 C   0  0  0  0  0  0  0  0  0  0  0  0
   25.4300   25.4300   34.4200 O   0  0  0  0  0  0  0  0  0  0  0  0
   26.9800   26.6300   35.7100 C   0  0  0  0  0  0  0  0  0  0  0  0
   27.3200   26.8200   36.9800 N   0  0  0  0  0  0  0  0  0  0  0  0
   28.4700   27.4000   37.3100 N   0  0  0  0  0  0  0  0  0  0  0  0
   29.4000   27.6300   36.3700 C   0  0  0  0  0  0  0  0  0  0  0  0
   30.6600   28.0500   36.8000 C   0  0  0  0  0  0  0  0  0  0  0  0
   31.5700   28.3600   35.7800 C   0  0  0  0  0  0  0  0  0  0  0  0
   31.3700   28.1000   34.4300 C   0  0  0  0  0  0  0  0  0  0  0  0
   30.1200   27.5900   34.0500 C   0  0  0  0  0  0  0  0  0  0  0  0
   29.1500   27.3400   35.0300 C   0  0  0  0  0  0  0  0  0  0  0  0
   27.8800   26.8900   34.6600 C   0  0  0  0  0  0  0  0  0  0  0  0
   27.4800   26.6100   33.3700 N   0  0  0  0  0  0  0  0  0  0  0  0
   30.9717   28.3256   38.1771 N   0  0  0  0  0  0  0  0  0  0  0  0
   31.3836   27.2311   39.0573 C   0  0  0  0  0  0  0  0  0  0  0  0
   30.2499   26.8048   39.9930 C   0  0  0  0  0  0  0  0  0  0  0  0
   29.7302   27.9380   40.8215 C   0  0  0  0  0  0  0  0  0  0  0  0
   28.9711   29.0837   40.5858 C   0  0  0  0  0  0  0  0  0  0  0  0
   28.9569   29.3944   42.0425 C   0  0  0  0  0  0  0  0  0  0  0  0
   29.7485   28.2307   42.2824 C   0  0  0  0  0  0  0  0  0  0  0  0
   28.3716   29.6968   39.4396 N   0  0  0  0  0  0  0  0  0  0  0  0
   29.0254   30.3656   38.5356 C   0  0  0  0  0  0  0  0  0  0  0  0
   30.4778   30.6002   38.6314 C   0  0  0  0  0  0  0  0  0  0  0  0
   31.3399   29.6352   38.5316 N   0  0  0  0  0  0  0  0  0  0  0  0
   28.2958   30.9865   37.4662 C   0  0  0  0  0  0  0  0  0  0  0  0
   27.7081   31.4848   36.6029 N   0  0  0  0  0  0  0  0  0  0  0  0
  1  2  1  0
  2  3  2  0
  2  4  1  0
  4  5  2  0
  5  6  1  0
  6  7  2  0
  7  8  1  0
  8  9  2  0
  9 10  1  0
 10 11  2  0
 11 12  1  0
 12 13  2  0
 13 14  1  0
  8 15  1  0
 15 16  1  0
 16 17  1  0
 17 18  1  0
 18 19  2  0
 19 20  1  0
 20 21  1  0
 19 22  1  0
 22 23  2  0
 23 24  1  0
 24 25  2  0
 23 26  1  0
 26 27  3  0
 13  4  1  0
 25 15  1  0
 12  7  1  0
 21 18  1  0
M  END
>  <AAScore>  (1) 
2.7882127258704914

>  <RootName>  (1) 
./4ZLY/04_DeltaGEst/trajectory_01/rank_01/lead_0152

$$$$
