confid_3
     RDKit          3D

 29 32  0  0  0  0  0  0  0  0999 V2000
   24.4800   26.1000   36.1300 N   0  0  0  0  0  0  0  0  0  0  0  0
   25.2500   26.2500   34.9900 C   0  0  0  0  0  0  0  0  0  0  0  0
   24.7400   25.7600   33.9900 O   0  0  0  0  0  0  0  0  0  0  0  0
   26.5900   26.8900   34.9600 C   0  0  0  0  0  0  0  0  0  0  0  0
   27.0600   27.2400   36.1600 N   0  0  0  0  0  0  0  0  0  0  0  0
   28.3000   27.7100   36.2400 N   0  0  0  0  0  0  0  0  0  0  0  0
   29.0500   27.9600   35.1500 C   0  0  0  0  0  0  0  0  0  0  0  0
   30.3400   28.4900   35.2600 C   0  0  0  0  0  0  0  0  0  0  0  0
   31.1100   28.8200   34.1400 C   0  0  0  0  0  0  0  0  0  0  0  0
   30.5200   28.6700   32.8800 C   0  0  0  0  0  0  0  0  0  0  0  0
   29.2900   28.0200   32.7700 C   0  0  0  0  0  0  0  0  0  0  0  0
   28.5200   27.7100   33.8900 C   0  0  0  0  0  0  0  0  0  0  0  0
   27.2700   27.0800   33.7600 C   0  0  0  0  0  0  0  0  0  0  0  0
   26.7500   26.8800   32.4900 N   0  0  0  0  0  0  0  0  0  0  0  0
   23.4722   25.0906   36.3119 C   0  0  0  0  0  0  0  0  0  0  0  0
   22.3465   25.4207   36.8705 N   0  0  0  0  0  0  0  0  0  0  0  0
   21.2643   24.5005   37.0714 C   0  0  0  0  0  0  0  0  0  0  0  0
   21.3921   23.1929   36.7857 C   0  0  0  0  0  0  0  0  0  0  0  0
   20.1729   22.2961   36.7792 C   0  0  0  0  0  0  0  0  0  0  0  0
   19.5925   22.1585   35.4254 N   0  0  0  0  0  0  0  0  0  0  0  0
   19.1167   23.4461   34.8791 C   0  0  0  0  0  0  0  0  0  0  0  0
   20.4394   21.3520   34.5028 C   0  0  1  0  0  0  0  0  0  0  0  0
   19.7646   21.1514   33.1361 C   0  0  0  0  0  0  0  0  0  0  0  0
   21.8770   21.9012   34.3360 C   0  0  0  0  0  0  0  0  0  0  0  0
   22.6597   21.5589   35.4680 O   0  0  0  0  0  0  0  0  0  0  0  0
   22.7558   22.6067   36.4258 C   0  0  2  0  0  0  0  0  0  0  0  0
   23.3526   21.9997   37.7045 C   0  0  0  0  0  0  0  0  0  0  0  0
   23.7154   23.6767   35.9446 C   0  0  0  0  0  0  0  0  0  0  0  0
   24.7687   23.3428   35.3371 O   0  0  0  0  0  0  0  0  0  0  0  0
  1  2  1  0
  2  3  2  0
  2  4  1  0
  4  5  2  0
  5  6  1  0
  6  7  2  0
  7  8  1  0
  8  9  2  0
  9 10  1  0
 10 11  2  0
 11 12  1  0
 12 13  2  0
 13 14  1  0
  1 15  1  0
 15 16  2  0
 16 17  1  0
 17 18  2  0
 18 19  1  0
 19 20  1  0
 20 21  1  0
 20 22  1  0
 22 23  1  6
 22 24  1  0
 24 25  1  0
 25 26  1  0
 26 27  1  1
 26 28  1  0
 28 29  2  0
 13  4  1  0
 28 15  1  0
 12  7  1  0
 26 18  1  0
M  END
>  <AAScore>  (1) 
569.543545206904

>  <RootName>  (1) 
./4ZLY/04_DeltaGEst/trajectory_00/rank_00/lead_0242

$$$$
