confid_2
     RDKit          3D

 27 30  0  0  0  0  0  0  0  0999 V2000
   24.4800   26.1000   36.1300 N   0  0  0  0  0  0  0  0  0  0  0  0
   25.2500   26.2500   34.9900 C   0  0  0  0  0  0  0  0  0  0  0  0
   24.7400   25.7600   33.9900 O   0  0  0  0  0  0  0  0  0  0  0  0
   26.5900   26.8900   34.9600 C   0  0  0  0  0  0  0  0  0  0  0  0
   27.0600   27.2400   36.1600 N   0  0  0  0  0  0  0  0  0  0  0  0
   28.3000   27.7100   36.2400 N   0  0  0  0  0  0  0  0  0  0  0  0
   29.0500   27.9600   35.1500 C   0  0  0  0  0  0  0  0  0  0  0  0
   30.3400   28.4900   35.2600 C   0  0  0  0  0  0  0  0  0  0  0  0
   31.1100   28.8200   34.1400 C   0  0  0  0  0  0  0  0  0  0  0  0
   30.5200   28.6700   32.8800 C   0  0  0  0  0  0  0  0  0  0  0  0
   29.2900   28.0200   32.7700 C   0  0  0  0  0  0  0  0  0  0  0  0
   28.5200   27.7100   33.8900 C   0  0  0  0  0  0  0  0  0  0  0  0
   27.2700   27.0800   33.7600 C   0  0  0  0  0  0  0  0  0  0  0  0
   26.7500   26.8800   32.4900 N   0  0  0  0  0  0  0  0  0  0  0  0
   23.4713   25.0941   36.3365 C   0  0  0  0  0  0  0  0  0  0  0  0
   22.6702   25.1679   37.4308 N   0  0  0  0  0  0  0  0  0  0  0  0
   21.7265   24.2244   37.6787 C   0  0  0  0  0  0  0  0  0  0  0  0
   21.5753   23.1293   36.8143 C   0  0  0  0  0  0  0  0  0  0  0  0
   20.4914   22.0895   37.0511 C   0  0  1  0  0  0  0  0  0  0  0  0
   20.5214   20.9486   36.0000 C   0  0  0  0  0  0  0  0  0  0  0  0
   20.9005   21.4057   34.6456 N   0  0  0  0  0  0  0  0  0  0  0  0
   19.9164   22.3204   34.0211 C   0  0  0  0  0  0  0  0  0  0  0  0
   18.6704   21.5642   33.5649 C   0  0  0  0  0  0  0  0  0  0  0  0
   22.2599   21.9796   34.6668 C   0  0  0  0  0  0  0  0  0  0  0  0
   22.3845   23.0954   35.6652 C   0  0  0  0  0  0  0  0  0  0  0  0
   23.3225   24.0583   35.4680 N   0  0  0  0  0  0  0  0  0  0  0  0
   20.5907   21.4867   38.4617 C   0  0  0  0  0  0  0  0  0  0  0  0
  1  2  1  0
  2  3  2  0
  2  4  1  0
  4  5  2  0
  5  6  1  0
  6  7  2  0
  7  8  1  0
  8  9  2  0
  9 10  1  0
 10 11  2  0
 11 12  1  0
 12 13  2  0
 13 14  1  0
  1 15  1  0
 15 16  2  0
 16 17  1  0
 17 18  2  0
 18 19  1  0
 19 20  1  0
 20 21  1  0
 21 22  1  0
 22 23  1  0
 21 24  1  0
 24 25  1  0
 25 26  2  0
 19 27  1  1
 13  4  1  0
 26 15  1  0
 12  7  1  0
 25 18  1  0
M  END
>  <AAScore>  (1) 
283.05943530840256

>  <RootName>  (1) 
./4ZLY/04_DeltaGEst/trajectory_00/rank_01/lead_0487

$$$$
