confid_18
     RDKit          3D

 27 30  0  0  0  0  0  0  0  0999 V2000
   24.6900   26.1200   35.5300 N   0  0  0  0  0  0  0  0  0  0  0  0
   25.6600   25.6700   34.6600 C   0  0  0  0  0  0  0  0  0  0  0  0
   25.2400   25.0100   33.7200 O   0  0  0  0  0  0  0  0  0  0  0  0
   27.0300   26.2200   34.8800 C   0  0  0  0  0  0  0  0  0  0  0  0
   27.3500   26.7300   36.0700 N   0  0  0  0  0  0  0  0  0  0  0  0
   28.5700   27.1800   36.3300 N   0  0  0  0  0  0  0  0  0  0  0  0
   29.5300   27.1100   35.3900 C   0  0  0  0  0  0  0  0  0  0  0  0
   30.8300   27.5700   35.6500 C   0  0  0  0  0  0  0  0  0  0  0  0
   31.8500   27.5400   34.6900 C   0  0  0  0  0  0  0  0  0  0  0  0
   31.5100   27.1200   33.4000 C   0  0  0  0  0  0  0  0  0  0  0  0
   30.2200   26.6300   33.1100 C   0  0  0  0  0  0  0  0  0  0  0  0
   29.2400   26.6600   34.1000 C   0  0  0  0  0  0  0  0  0  0  0  0
   27.9300   26.2600   33.8100 C   0  0  0  0  0  0  0  0  0  0  0  0
   27.5200   25.7100   32.6100 N   0  0  0  0  0  0  0  0  0  0  0  0
   31.1464   28.0561   36.9652 N   0  0  0  0  0  0  0  0  0  0  0  0
   31.6677   29.4101   37.1343 C   0  0  0  0  0  0  0  0  0  0  0  0
   31.0135   30.0520   38.3528 C   0  0  0  0  0  0  0  0  0  0  0  0
   31.0582   29.1481   39.5690 C   0  0  0  0  0  0  0  0  0  0  0  0
   30.8990   29.6901   40.8673 C   0  0  0  0  0  0  0  0  0  0  0  0
   30.8960   28.8467   41.9842 C   0  0  0  0  0  0  0  0  0  0  0  0
   31.0334   27.4693   41.8278 C   0  0  0  0  0  0  0  0  0  0  0  0
   31.1657   26.9165   40.5546 C   0  0  0  0  0  0  0  0  0  0  0  0
   31.2953   25.5709   40.4301 F   0  0  0  0  0  0  0  0  0  0  0  0
   31.1634   27.7410   39.4160 C   0  0  0  0  0  0  0  0  0  0  0  0
   31.3266   27.0963   38.0572 C   0  0  0  0  0  0  0  0  0  0  0  0
   30.7261   31.1080   41.0790 C   0  0  0  0  0  0  0  0  0  0  0  0
   30.5874   32.2444   41.2488 N   0  0  0  0  0  0  0  0  0  0  0  0
  1  2  1  0
  2  3  2  0
  2  4  1  0
  4  5  2  0
  5  6  1  0
  6  7  2  0
  7  8  1  0
  8  9  2  0
  9 10  1  0
 10 11  2  0
 11 12  1  0
 12 13  2  0
 13 14  1  0
  8 15  1  0
 15 16  1  0
 16 17  1  0
 17 18  1  0
 18 19  2  0
 19 20  1  0
 20 21  2  0
 21 22  1  0
 22 23  1  0
 22 24  2  0
 24 25  1  0
 19 26  1  0
 26 27  3  0
 13  4  1  0
 25 15  1  0
 12  7  1  0
 24 18  1  0
M  END
>  <AAScore>  (1) 
-7.457169041012602

>  <RootName>  (1) 
./4ZLY/04_DeltaGEst/trajectory_02/rank_01/lead_0243

$$$$
