confid_16
     RDKit          3D

 28 32  0  0  0  0  0  0  0  0999 V2000
   25.3300   26.2600   34.7600 N   0  0  0  0  0  0  0  0  0  0  0  0
   26.1200   25.9200   33.6900 C   0  0  0  0  0  0  0  0  0  0  0  0
   25.6300   25.1100   32.9400 O   0  0  0  0  0  0  0  0  0  0  0  0
   27.5200   26.3800   33.4600 C   0  0  0  0  0  0  0  0  0  0  0  0
   28.1600   26.6300   34.6100 N   0  0  0  0  0  0  0  0  0  0  0  0
   29.4800   26.8500   34.5700 N   0  0  0  0  0  0  0  0  0  0  0  0
   30.1900   26.7800   33.4400 C   0  0  0  0  0  0  0  0  0  0  0  0
   31.5600   27.0500   33.5000 C   0  0  0  0  0  0  0  0  0  0  0  0
   32.2700   27.2400   32.3100 C   0  0  0  0  0  0  0  0  0  0  0  0
   31.6100   27.2500   31.0800 C   0  0  0  0  0  0  0  0  0  0  0  0
   30.2700   26.8700   31.0600 C   0  0  0  0  0  0  0  0  0  0  0  0
   29.5100   26.6900   32.2300 C   0  0  0  0  0  0  0  0  0  0  0  0
   28.1400   26.4100   32.2000 C   0  0  0  0  0  0  0  0  0  0  0  0
   27.4300   26.1300   31.0500 N   0  0  0  0  0  0  0  0  0  0  0  0
   23.9005   26.0699   34.8543 C   0  0  0  0  0  0  0  0  0  0  0  0
   23.2281   25.8410   33.7556 N   0  0  0  0  0  0  0  0  0  0  0  0
   21.8557   25.5795   33.4150 C   0  0  0  0  0  0  0  0  0  0  0  0
   20.9989   24.9624   34.2175 C   0  0  0  0  0  0  0  0  0  0  0  0
   19.9336   23.9168   34.0440 C   0  0  0  0  0  0  0  0  0  0  0  0
   19.8661   23.5848   35.3936 O   0  0  0  0  0  0  0  0  0  0  0  0
   20.7440   24.6311   35.6505 C   0  0  1  0  0  0  0  0  0  0  0  0
   22.0210   24.2267   36.3777 C   0  0  0  0  0  0  0  0  0  0  0  0
   22.5988   25.4948   36.9278 C   0  0  0  0  0  0  0  0  0  0  0  0
   23.2960   26.3711   36.1748 C   0  0  0  0  0  0  0  0  0  0  0  0
   23.5912   27.6309   36.7164 O   0  0  0  0  0  0  0  0  0  0  0  0
   23.4796   27.9334   38.1077 C   0  0  0  0  0  0  0  0  0  0  0  0
   22.5008   27.0225   38.7827 C   0  0  0  0  0  0  0  0  0  0  0  0
   22.1503   25.9017   38.2306 N   0  0  0  0  0  0  0  0  0  0  0  0
  1  2  1  0
  2  3  2  0
  2  4  1  0
  4  5  2  0
  5  6  1  0
  6  7  2  0
  7  8  1  0
  8  9  2  0
  9 10  1  0
 10 11  2  0
 11 12  1  0
 12 13  2  0
 13 14  1  0
  1 15  1  0
 15 16  2  0
 16 17  1  0
 17 18  2  0
 18 19  1  0
 19 20  1  0
 20 21  1  0
 21 22  1  6
 22 23  1  0
 23 24  2  0
 24 25  1  0
 25 26  1  0
 26 27  1  0
 27 28  2  0
 13  4  1  0
 24 15  1  0
 12  7  1  0
 21 18  1  0
 28 23  1  0
M  END
>  <AAScore>  (1) 
2353.737538895221

>  <RootName>  (1) 
./4ZLY/04_DeltaGEst/trajectory_03/rank_00/lead_0097

$$$$
