confid_18
     RDKit          3D

 27 30  0  0  0  0  0  0  0  0999 V2000
   24.2000   26.2400   35.6900 N   0  0  0  0  0  0  0  0  0  0  0  0
   24.8500   26.2800   34.4800 C   0  0  0  0  0  0  0  0  0  0  0  0
   24.3100   25.7400   33.5400 O   0  0  0  0  0  0  0  0  0  0  0  0
   26.1800   26.9700   34.4700 C   0  0  0  0  0  0  0  0  0  0  0  0
   26.6500   27.6000   35.5500 N   0  0  0  0  0  0  0  0  0  0  0  0
   27.7900   28.2700   35.6200 N   0  0  0  0  0  0  0  0  0  0  0  0
   28.5400   28.3000   34.5100 C   0  0  0  0  0  0  0  0  0  0  0  0
   29.7700   28.9400   34.5600 C   0  0  0  0  0  0  0  0  0  0  0  0
   30.7000   28.8900   33.5000 C   0  0  0  0  0  0  0  0  0  0  0  0
   30.3700   28.1400   32.3700 C   0  0  0  0  0  0  0  0  0  0  0  0
   29.1200   27.5200   32.2800 C   0  0  0  0  0  0  0  0  0  0  0  0
   28.2100   27.6100   33.3300 C   0  0  0  0  0  0  0  0  0  0  0  0
   26.9700   26.9700   33.3100 C   0  0  0  0  0  0  0  0  0  0  0  0
   26.5300   26.2400   32.2200 N   0  0  0  0  0  0  0  0  0  0  0  0
   30.1373   29.6920   35.7296 N   0  0  0  0  0  0  0  0  0  0  0  0
   29.4233   30.9338   36.0518 C   0  0  0  0  0  0  0  0  0  0  0  0
   30.2472   31.7951   37.0094 C   0  0  0  0  0  0  0  0  0  0  0  0
   31.6629   31.7255   36.6021 N   0  0  0  0  0  0  0  0  0  0  0  0
   32.4663   32.7774   37.2549 C   0  0  0  0  0  0  0  0  0  0  0  0
   32.2172   34.1065   36.6112 C   0  0  0  0  0  0  0  0  0  0  0  0
   32.0470   34.2750   35.2811 N   0  0  0  0  0  0  0  0  0  0  0  0
   31.8806   35.5854   34.9557 C   0  0  0  0  0  0  0  0  0  0  0  0
   31.7108   36.0278   33.5397 C   0  0  0  0  0  0  0  0  0  0  0  0
   31.9551   36.4759   36.0240 C   0  0  0  0  0  0  0  0  0  0  0  0
   32.2135   35.5787   37.4228 S   0  0  0  0  0  0  0  0  0  0  0  0
   32.2298   30.3860   36.8837 C   0  0  0  0  0  0  0  0  0  0  0  0
   31.2429   29.2366   36.5801 C   0  0  0  0  0  0  0  0  0  0  0  0
  1  2  1  0
  2  3  2  0
  2  4  1  0
  4  5  2  0
  5  6  1  0
  6  7  2  0
  7  8  1  0
  8  9  2  0
  9 10  1  0
 10 11  2  0
 11 12  1  0
 12 13  2  0
 13 14  1  0
  8 15  1  0
 15 16  1  0
 16 17  1  0
 17 18  1  0
 18 19  1  0
 19 20  1  0
 20 21  2  0
 21 22  1  0
 22 23  1  0
 22 24  2  0
 24 25  1  0
 18 26  1  0
 26 27  1  0
 13  4  1  0
 27 15  1  0
 12  7  1  0
 25 20  1  0
M  END
>  <AAScore>  (1) 
-8.249750100142771

>  <RootName>  (1) 
./4ZLY/04_DeltaGEst/trajectory_04/rank_01/lead_0266

$$$$
