confid_12
     RDKit          3D

 28 31  0  0  0  0  0  0  0  0999 V2000
   25.3300   26.2600   34.7600 N   0  0  0  0  0  0  0  0  0  0  0  0
   26.1200   25.9200   33.6900 C   0  0  0  0  0  0  0  0  0  0  0  0
   25.6300   25.1100   32.9400 O   0  0  0  0  0  0  0  0  0  0  0  0
   27.5200   26.3800   33.4600 C   0  0  0  0  0  0  0  0  0  0  0  0
   28.1600   26.6300   34.6100 N   0  0  0  0  0  0  0  0  0  0  0  0
   29.4800   26.8500   34.5700 N   0  0  0  0  0  0  0  0  0  0  0  0
   30.1900   26.7800   33.4400 C   0  0  0  0  0  0  0  0  0  0  0  0
   31.5600   27.0500   33.5000 C   0  0  0  0  0  0  0  0  0  0  0  0
   32.2700   27.2400   32.3100 C   0  0  0  0  0  0  0  0  0  0  0  0
   31.6100   27.2500   31.0800 C   0  0  0  0  0  0  0  0  0  0  0  0
   30.2700   26.8700   31.0600 C   0  0  0  0  0  0  0  0  0  0  0  0
   29.5100   26.6900   32.2300 C   0  0  0  0  0  0  0  0  0  0  0  0
   28.1400   26.4100   32.2000 C   0  0  0  0  0  0  0  0  0  0  0  0
   27.4300   26.1300   31.0500 N   0  0  0  0  0  0  0  0  0  0  0  0
   24.0509   25.6750   35.0569 C   0  0  0  0  0  0  0  0  0  0  0  0
   23.0271   26.4668   35.1764 N   0  0  0  0  0  0  0  0  0  0  0  0
   21.6971   26.0981   35.5647 C   0  0  0  0  0  0  0  0  0  0  0  0
   21.3672   25.6474   36.7963 C   0  0  0  0  0  0  0  0  0  0  0  0
   19.8851   25.6253   37.1436 C   0  0  0  0  0  0  0  0  0  0  0  0
   19.5332   24.5972   38.1495 N   0  0  0  0  0  0  0  0  0  0  0  0
   20.4476   24.5008   39.3183 C   0  0  0  0  0  0  0  0  0  0  0  0
   21.6293   25.4878   39.2699 C   0  0  0  0  0  0  0  0  0  0  0  0
   22.3878   25.4205   37.9184 C   0  0  2  0  0  0  0  0  0  0  0  0
   23.3436   26.4568   37.9038 O   0  0  0  0  0  0  0  0  0  0  0  0
   23.0797   24.0241   37.7836 C   0  0  0  0  0  0  0  0  0  0  0  0
   24.2973   23.9482   36.8471 C   0  0  0  0  0  0  0  0  0  0  0  0
   23.9602   24.2031   35.3736 C   0  0  0  0  0  0  0  0  0  0  0  0
   19.2701   23.2893   37.5276 C   0  0  0  0  0  0  0  0  0  0  0  0
  1  2  1  0
  2  3  2  0
  2  4  1  0
  4  5  2  0
  5  6  1  0
  6  7  2  0
  7  8  1  0
  8  9  2  0
  9 10  1  0
 10 11  2  0
 11 12  1  0
 12 13  2  0
 13 14  1  0
  1 15  1  0
 15 16  2  0
 16 17  1  0
 17 18  2  0
 18 19  1  0
 19 20  1  0
 20 21  1  0
 21 22  1  0
 22 23  1  0
 23 24  1  1
 23 25  1  0
 25 26  1  0
 26 27  1  0
 20 28  1  0
 13  4  1  0
 27 15  1  0
 12  7  1  0
 23 18  1  0
M  END
>  <AAScore>  (1) 
1867.2533213807608

>  <RootName>  (1) 
./4ZLY/04_DeltaGEst/trajectory_03/rank_00/lead_0323

$$$$
