confid_2
     RDKit          3D

 29 33  0  0  0  0  0  0  0  0999 V2000
   24.6900   26.1200   35.5300 N   0  0  0  0  0  0  0  0  0  0  0  0
   25.6600   25.6700   34.6600 C   0  0  0  0  0  0  0  0  0  0  0  0
   25.2400   25.0100   33.7200 O   0  0  0  0  0  0  0  0  0  0  0  0
   27.0300   26.2200   34.8800 C   0  0  0  0  0  0  0  0  0  0  0  0
   27.3500   26.7300   36.0700 N   0  0  0  0  0  0  0  0  0  0  0  0
   28.5700   27.1800   36.3300 N   0  0  0  0  0  0  0  0  0  0  0  0
   29.5300   27.1100   35.3900 C   0  0  0  0  0  0  0  0  0  0  0  0
   30.8300   27.5700   35.6500 C   0  0  0  0  0  0  0  0  0  0  0  0
   31.8500   27.5400   34.6900 C   0  0  0  0  0  0  0  0  0  0  0  0
   31.5100   27.1200   33.4000 C   0  0  0  0  0  0  0  0  0  0  0  0
   30.2200   26.6300   33.1100 C   0  0  0  0  0  0  0  0  0  0  0  0
   29.2400   26.6600   34.1000 C   0  0  0  0  0  0  0  0  0  0  0  0
   27.9300   26.2600   33.8100 C   0  0  0  0  0  0  0  0  0  0  0  0
   27.5200   25.7100   32.6100 N   0  0  0  0  0  0  0  0  0  0  0  0
   23.3208   26.3842   35.1705 C   0  0  0  0  0  0  0  0  0  0  0  0
   22.9711   26.4382   33.9131 N   0  0  0  0  0  0  0  0  0  0  0  0
   21.7091   26.7301   33.2720 C   0  0  0  0  0  0  0  0  0  0  0  0
   20.4822   26.4399   33.7329 C   0  0  0  0  0  0  0  0  0  0  0  0
   19.1005   26.5101   33.1428 C   0  0  0  0  0  0  0  0  0  0  0  0
   18.4509   25.9473   34.2357 O   0  0  0  0  0  0  0  0  0  0  0  0
   19.6784   25.8573   34.8806 C   0  0  2  0  0  0  0  0  0  0  0  0
   19.6797   26.7222   36.1481 C   0  0  0  0  0  0  0  0  0  0  0  0
   21.0734   26.8032   36.6099 C   0  0  0  0  0  0  0  0  0  0  0  0
   22.3787   26.6810   36.2389 C   0  0  0  0  0  0  0  0  0  0  0  0
   22.0732   26.9885   37.5688 N   0  0  0  0  0  0  0  0  0  0  0  0
   22.4868   27.2102   38.9437 C   0  0  0  0  0  0  0  0  0  0  0  0
   21.4652   28.0791   39.6688 C   0  0  0  0  0  0  0  0  0  0  0  0
   20.2284   27.3994   39.7270 O   0  0  0  0  0  0  0  0  0  0  0  0
   19.2662   28.2323   40.3329 C   0  0  0  0  0  0  0  0  0  0  0  0
  1  2  1  0
  2  3  2  0
  2  4  1  0
  4  5  2  0
  5  6  1  0
  6  7  2  0
  7  8  1  0
  8  9  2  0
  9 10  1  0
 10 11  2  0
 11 12  1  0
 12 13  2  0
 13 14  1  0
  1 15  1  0
 15 16  2  0
 16 17  1  0
 17 18  2  0
 18 19  1  0
 19 20  1  0
 20 21  1  0
 21 22  1  1
 22 23  1  0
 23 24  2  0
 24 25  1  0
 25 26  1  0
 26 27  1  0
 27 28  1  0
 28 29  1  0
 13  4  1  0
 24 15  1  0
 12  7  1  0
 21 18  1  0
 25 23  1  0
M  END
>  <AAScore>  (1) 
242.50069227147603

>  <RootName>  (1) 
./4ZLY/04_DeltaGEst/trajectory_02/rank_00/lead_0003

$$$$
