confid_6
     RDKit          3D

 29 32  0  0  0  0  0  0  0  0999 V2000
   24.5500   26.3900   36.2500 N   0  0  0  0  0  0  0  0  0  0  0  0
   25.6000   26.1300   35.4000 C   0  0  0  0  0  0  0  0  0  0  0  0
   25.4300   25.4300   34.4200 O   0  0  0  0  0  0  0  0  0  0  0  0
   26.9800   26.6300   35.7100 C   0  0  0  0  0  0  0  0  0  0  0  0
   27.3200   26.8200   36.9800 N   0  0  0  0  0  0  0  0  0  0  0  0
   28.4700   27.4000   37.3100 N   0  0  0  0  0  0  0  0  0  0  0  0
   29.4000   27.6300   36.3700 C   0  0  0  0  0  0  0  0  0  0  0  0
   30.6600   28.0500   36.8000 C   0  0  0  0  0  0  0  0  0  0  0  0
   31.5700   28.3600   35.7800 C   0  0  0  0  0  0  0  0  0  0  0  0
   31.3700   28.1000   34.4300 C   0  0  0  0  0  0  0  0  0  0  0  0
   30.1200   27.5900   34.0500 C   0  0  0  0  0  0  0  0  0  0  0  0
   29.1500   27.3400   35.0300 C   0  0  0  0  0  0  0  0  0  0  0  0
   27.8800   26.8900   34.6600 C   0  0  0  0  0  0  0  0  0  0  0  0
   27.4800   26.6100   33.3700 N   0  0  0  0  0  0  0  0  0  0  0  0
   23.1771   25.9437   35.9734 C   0  0  0  0  0  0  0  0  0  0  0  0
   22.5950   26.7084   34.7605 C   0  0  0  0  0  0  0  0  0  0  0  0
   21.0867   26.9951   34.8962 C   0  0  0  0  0  0  0  0  0  0  0  0
   20.3654   25.8941   35.5662 N   0  0  0  0  0  0  0  0  0  0  0  0
   20.2942   24.6715   34.7322 C   0  0  0  0  0  0  0  0  0  0  0  0
   18.9697   23.9142   34.9828 C   0  0  2  0  0  0  0  0  0  0  0  0
   18.9552   22.5592   34.2299 C   0  0  0  0  0  0  0  0  0  0  0  0
   18.5081   22.6775   32.7672 C   0  0  0  0  0  0  0  0  0  0  0  0
   17.0531   22.5795   32.6400 N   0  0  0  0  0  0  0  0  0  0  0  0
   16.1079   23.4055   33.3407 C   0  0  0  0  0  0  0  0  0  0  0  0
   14.9386   23.5091   32.8812 O   0  0  0  0  0  0  0  0  0  0  0  0
   16.4209   24.0645   34.6608 C   0  0  0  0  0  0  0  0  0  0  0  0
   17.7556   24.8193   34.6533 C   0  0  0  0  0  0  0  0  0  0  0  0
   20.8531   25.6333   36.9477 C   0  0  0  0  0  0  0  0  0  0  0  0
   22.2906   26.1300   37.2125 C   0  0  0  0  0  0  0  0  0  0  0  0
  1  2  1  0
  2  3  2  0
  2  4  1  0
  4  5  2  0
  5  6  1  0
  6  7  2  0
  7  8  1  0
  8  9  2  0
  9 10  1  0
 10 11  2  0
 11 12  1  0
 12 13  2  0
 13 14  1  0
  1 15  1  0
 15 16  1  0
 16 17  1  0
 17 18  1  0
 18 19  1  0
 20 19  1  6
 20 21  1  0
 21 22  1  0
 22 23  1  0
 23 24  1  0
 24 25  2  0
 24 26  1  0
 26 27  1  0
 18 28  1  0
 28 29  1  0
 13  4  1  0
 29 15  1  0
 12  7  1  0
 27 20  1  0
M  END
>  <AAScore>  (1) 
1474.118080031098

>  <RootName>  (1) 
./4ZLY/04_DeltaGEst/trajectory_01/rank_00/lead_0227

$$$$
