confid_11
     RDKit          3D

 27 30  0  0  0  0  0  0  0  0999 V2000
   24.6900   26.1200   35.5300 N   0  0  0  0  0  0  0  0  0  0  0  0
   25.6600   25.6700   34.6600 C   0  0  0  0  0  0  0  0  0  0  0  0
   25.2400   25.0100   33.7200 O   0  0  0  0  0  0  0  0  0  0  0  0
   27.0300   26.2200   34.8800 C   0  0  0  0  0  0  0  0  0  0  0  0
   27.3500   26.7300   36.0700 N   0  0  0  0  0  0  0  0  0  0  0  0
   28.5700   27.1800   36.3300 N   0  0  0  0  0  0  0  0  0  0  0  0
   29.5300   27.1100   35.3900 C   0  0  0  0  0  0  0  0  0  0  0  0
   30.8300   27.5700   35.6500 C   0  0  0  0  0  0  0  0  0  0  0  0
   31.8500   27.5400   34.6900 C   0  0  0  0  0  0  0  0  0  0  0  0
   31.5100   27.1200   33.4000 C   0  0  0  0  0  0  0  0  0  0  0  0
   30.2200   26.6300   33.1100 C   0  0  0  0  0  0  0  0  0  0  0  0
   29.2400   26.6600   34.1000 C   0  0  0  0  0  0  0  0  0  0  0  0
   27.9300   26.2600   33.8100 C   0  0  0  0  0  0  0  0  0  0  0  0
   27.5200   25.7100   32.6100 N   0  0  0  0  0  0  0  0  0  0  0  0
   31.1446   28.0698   36.9585 N   0  0  0  0  0  0  0  0  0  0  0  0
   30.7393   29.4340   37.3127 C   0  0  0  0  0  0  0  0  0  0  0  0
   31.0936   29.7453   38.7672 C   0  0  0  0  0  0  0  0  0  0  0  0
   30.7931   28.5633   39.5933 N   0  0  0  0  0  0  0  0  0  0  0  0
   30.8127   28.9149   41.0279 C   0  0  0  0  0  0  0  0  0  0  0  0
   30.2354   27.8047   41.8541 C   0  0  0  0  0  0  0  0  0  0  0  0
   28.9055   27.4284   41.9012 C   0  0  0  0  0  0  0  0  0  0  0  0
   28.8504   26.3144   42.7158 C   0  0  0  0  0  0  0  0  0  0  0  0
   30.0860   26.0136   43.1622 N   0  0  0  0  0  0  0  0  0  0  0  0
   30.4489   24.8512   43.9630 C   0  0  0  0  0  0  0  0  0  0  0  0
   30.9419   26.9043   42.6267 C   0  0  0  0  0  0  0  0  0  0  0  0
   31.7342   27.4534   39.2965 C   0  0  0  0  0  0  0  0  0  0  0  0
   32.1008   27.3439   37.7998 C   0  0  0  0  0  0  0  0  0  0  0  0
  1  2  1  0
  2  3  2  0
  2  4  1  0
  4  5  2  0
  5  6  1  0
  6  7  2  0
  7  8  1  0
  8  9  2  0
  9 10  1  0
 10 11  2  0
 11 12  1  0
 12 13  2  0
 13 14  1  0
  8 15  1  0
 15 16  1  0
 16 17  1  0
 17 18  1  0
 18 19  1  0
 19 20  1  0
 20 21  1  0
 21 22  2  0
 22 23  1  0
 23 24  1  0
 23 25  1  0
 18 26  1  0
 26 27  1  0
 13  4  1  0
 27 15  1  0
 12  7  1  0
 25 20  2  0
M  END
>  <AAScore>  (1) 
3.237226067357922

>  <RootName>  (1) 
./4ZLY/04_DeltaGEst/trajectory_02/rank_01/lead_0444

$$$$
