confid_13
     RDKit          3D

 28 32  0  0  0  0  0  0  0  0999 V2000
   25.3300   26.2600   34.7600 N   0  0  0  0  0  0  0  0  0  0  0  0
   26.1200   25.9200   33.6900 C   0  0  0  0  0  0  0  0  0  0  0  0
   25.6300   25.1100   32.9400 O   0  0  0  0  0  0  0  0  0  0  0  0
   27.5200   26.3800   33.4600 C   0  0  0  0  0  0  0  0  0  0  0  0
   28.1600   26.6300   34.6100 N   0  0  0  0  0  0  0  0  0  0  0  0
   29.4800   26.8500   34.5700 N   0  0  0  0  0  0  0  0  0  0  0  0
   30.1900   26.7800   33.4400 C   0  0  0  0  0  0  0  0  0  0  0  0
   31.5600   27.0500   33.5000 C   0  0  0  0  0  0  0  0  0  0  0  0
   32.2700   27.2400   32.3100 C   0  0  0  0  0  0  0  0  0  0  0  0
   31.6100   27.2500   31.0800 C   0  0  0  0  0  0  0  0  0  0  0  0
   30.2700   26.8700   31.0600 C   0  0  0  0  0  0  0  0  0  0  0  0
   29.5100   26.6900   32.2300 C   0  0  0  0  0  0  0  0  0  0  0  0
   28.1400   26.4100   32.2000 C   0  0  0  0  0  0  0  0  0  0  0  0
   27.4300   26.1300   31.0500 N   0  0  0  0  0  0  0  0  0  0  0  0
   23.8906   26.2410   34.7676 C   0  0  0  0  0  0  0  0  0  0  0  0
   23.2402   26.0521   35.9493 N   0  0  0  0  0  0  0  0  0  0  0  0
   21.8835   26.0492   36.0371 C   0  0  0  0  0  0  0  0  0  0  0  0
   21.1097   26.2678   34.8966 C   0  0  0  0  0  0  0  0  0  0  0  0
   19.7144   26.2696   34.9776 O   0  0  0  0  0  0  0  0  0  0  0  0
   18.8979   26.8805   33.9765 C   0  0  0  0  0  0  0  0  0  0  0  0
   19.4636   26.6865   32.6333 N   0  0  0  0  0  0  0  0  0  0  0  0
   20.8930   26.6261   32.4738 C   0  0  0  0  0  0  0  0  0  0  0  0
   21.4105   26.6657   31.3240 O   0  0  0  0  0  0  0  0  0  0  0  0
   21.7418   26.4713   33.6668 C   0  0  0  0  0  0  0  0  0  0  0  0
   23.1421   26.4681   33.5976 C   0  0  0  0  0  0  0  0  0  0  0  0
   18.5803   26.4532   31.4849 C   0  0  0  0  0  0  0  0  0  0  0  0
   17.4275   27.4389   31.3423 C   0  0  0  0  0  0  0  0  0  0  0  0
   18.6417   27.5587   30.4397 C   0  0  0  0  0  0  0  0  0  0  0  0
  1  2  1  0
  2  3  2  0
  2  4  1  0
  4  5  2  0
  5  6  1  0
  6  7  2  0
  7  8  1  0
  8  9  2  0
  9 10  1  0
 10 11  2  0
 11 12  1  0
 12 13  2  0
 13 14  1  0
  1 15  1  0
 15 16  2  0
 16 17  1  0
 17 18  2  0
 18 19  1  0
 19 20  1  0
 20 21  1  0
 21 22  1  0
 22 23  2  0
 22 24  1  0
 24 25  2  0
 21 26  1  0
 26 27  1  0
 27 28  1  0
 13  4  1  0
 25 15  1  0
 28 26  1  0
 12  7  1  0
 24 18  1  0
M  END
>  <AAScore>  (1) 
1251.739813957592

>  <RootName>  (1) 
./4ZLY/04_DeltaGEst/trajectory_03/rank_00/lead_0192

$$$$
