confid_7
     RDKit          3D

 28 31  0  0  0  0  0  0  0  0999 V2000
   24.2000   26.2400   35.6900 N   0  0  0  0  0  0  0  0  0  0  0  0
   24.8500   26.2800   34.4800 C   0  0  0  0  0  0  0  0  0  0  0  0
   24.3100   25.7400   33.5400 O   0  0  0  0  0  0  0  0  0  0  0  0
   26.1800   26.9700   34.4700 C   0  0  0  0  0  0  0  0  0  0  0  0
   26.6500   27.6000   35.5500 N   0  0  0  0  0  0  0  0  0  0  0  0
   27.7900   28.2700   35.6200 N   0  0  0  0  0  0  0  0  0  0  0  0
   28.5400   28.3000   34.5100 C   0  0  0  0  0  0  0  0  0  0  0  0
   29.7700   28.9400   34.5600 C   0  0  0  0  0  0  0  0  0  0  0  0
   30.7000   28.8900   33.5000 C   0  0  0  0  0  0  0  0  0  0  0  0
   30.3700   28.1400   32.3700 C   0  0  0  0  0  0  0  0  0  0  0  0
   29.1200   27.5200   32.2800 C   0  0  0  0  0  0  0  0  0  0  0  0
   28.2100   27.6100   33.3300 C   0  0  0  0  0  0  0  0  0  0  0  0
   26.9700   26.9700   33.3100 C   0  0  0  0  0  0  0  0  0  0  0  0
   26.5300   26.2400   32.2200 N   0  0  0  0  0  0  0  0  0  0  0  0
   22.7804   26.0412   35.8238 C   0  0  0  0  0  0  0  0  0  0  0  0
   21.9070   26.1474   34.8009 N   0  0  0  0  0  0  0  0  0  0  0  0
   20.6985   25.9871   35.3812 C   0  0  0  0  0  0  0  0  0  0  0  0
   19.4111   26.0575   34.5975 C   0  0  0  0  0  0  0  0  0  0  0  0
   18.2346   26.7224   35.3458 C   0  0  0  0  0  0  0  0  0  0  0  0
   18.7160   27.6357   36.4084 N   0  0  0  0  0  0  0  0  0  0  0  0
   18.8426   26.9505   37.7165 C   0  0  0  0  0  0  0  0  0  0  0  0
   19.6467   25.6407   37.6345 C   0  0  0  0  0  0  0  0  0  0  0  0
   20.7797   25.7786   36.7163 N   0  0  0  0  0  0  0  0  0  0  0  0
   22.0982   25.8122   37.0073 C   0  0  0  0  0  0  0  0  0  0  0  0
   22.6903   25.7109   38.3860 C   0  0  0  0  0  0  0  0  0  0  0  0
   22.5783   27.0014   39.0707 C   0  0  0  0  0  0  0  0  0  0  0  0
   22.4829   28.0638   39.6322 C   0  0  0  0  0  0  0  0  0  0  0  0
   17.8254   28.7992   36.5431 C   0  0  0  0  0  0  0  0  0  0  0  0
  1  2  1  0
  2  3  2  0
  2  4  1  0
  4  5  2  0
  5  6  1  0
  6  7  2  0
  7  8  1  0
  8  9  2  0
  9 10  1  0
 10 11  2  0
 11 12  1  0
 12 13  2  0
 13 14  1  0
  1 15  1  0
 15 16  1  0
 16 17  2  0
 17 18  1  0
 18 19  1  0
 19 20  1  0
 20 21  1  0
 21 22  1  0
 22 23  1  0
 23 24  1  0
 24 25  1  0
 25 26  1  0
 26 27  3  0
 20 28  1  0
 13  4  1  0
 24 15  2  0
 12  7  1  0
 23 17  1  0
M  END
>  <AAScore>  (1) 
748.2495126600604

>  <RootName>  (1) 
./4ZLY/04_DeltaGEst/trajectory_04/rank_00/lead_0016

$$$$
