confid_1
     RDKit          3D

 28 31  0  0  0  0  0  0  0  0999 V2000
   24.6900   26.1200   35.5300 N   0  0  0  0  0  0  0  0  0  0  0  0
   25.6600   25.6700   34.6600 C   0  0  0  0  0  0  0  0  0  0  0  0
   25.2400   25.0100   33.7200 O   0  0  0  0  0  0  0  0  0  0  0  0
   27.0300   26.2200   34.8800 C   0  0  0  0  0  0  0  0  0  0  0  0
   27.3500   26.7300   36.0700 N   0  0  0  0  0  0  0  0  0  0  0  0
   28.5700   27.1800   36.3300 N   0  0  0  0  0  0  0  0  0  0  0  0
   29.5300   27.1100   35.3900 C   0  0  0  0  0  0  0  0  0  0  0  0
   30.8300   27.5700   35.6500 C   0  0  0  0  0  0  0  0  0  0  0  0
   31.8500   27.5400   34.6900 C   0  0  0  0  0  0  0  0  0  0  0  0
   31.5100   27.1200   33.4000 C   0  0  0  0  0  0  0  0  0  0  0  0
   30.2200   26.6300   33.1100 C   0  0  0  0  0  0  0  0  0  0  0  0
   29.2400   26.6600   34.1000 C   0  0  0  0  0  0  0  0  0  0  0  0
   27.9300   26.2600   33.8100 C   0  0  0  0  0  0  0  0  0  0  0  0
   27.5200   25.7100   32.6100 N   0  0  0  0  0  0  0  0  0  0  0  0
   23.3638   26.5220   35.1326 C   0  0  0  0  0  0  0  0  0  0  0  0
   23.1185   26.7735   33.8654 N   0  0  0  0  0  0  0  0  0  0  0  0
   21.8905   27.2631   33.2810 C   0  0  0  0  0  0  0  0  0  0  0  0
   20.6785   26.8957   33.7253 C   0  0  0  0  0  0  0  0  0  0  0  0
   20.5958   25.8197   34.7460 C   0  0  0  0  0  0  0  0  0  0  0  0
   20.9444   26.5064   35.9803 N   0  0  0  0  0  0  0  0  0  0  0  0
   19.9544   27.5134   36.4056 C   0  0  0  0  0  0  0  0  0  0  0  0
   19.7489   28.5717   35.2825 C   0  0  0  0  0  0  0  0  0  0  0  0
   19.7186   27.9408   33.9419 N   0  0  0  0  0  0  0  0  0  0  0  0
   18.6492   28.2268   32.9737 C   0  0  0  0  0  0  0  0  0  0  0  0
   19.2342   28.6618   31.6268 C   0  0  0  0  0  0  0  0  0  0  0  0
   17.7350   27.0079   32.8106 C   0  0  0  0  0  0  0  0  0  0  0  0
   22.3461   26.7560   36.2077 C   0  0  0  0  0  0  0  0  0  0  0  0
   22.7272   27.1600   37.3405 O   0  0  0  0  0  0  0  0  0  0  0  0
  1  2  1  0
  2  3  2  0
  2  4  1  0
  4  5  2  0
  5  6  1  0
  6  7  2  0
  7  8  1  0
  8  9  2  0
  9 10  1  0
 10 11  2  0
 11 12  1  0
 12 13  2  0
 13 14  1  0
  1 15  1  0
 15 16  2  0
 16 17  1  0
 17 18  2  0
 18 19  1  0
 19 20  1  0
 20 21  1  0
 21 22  1  0
 22 23  1  0
 23 24  1  0
 24 25  1  0
 24 26  1  0
 20 27  1  0
 27 28  2  0
 13  4  1  0
 27 15  1  0
 12  7  1  0
 23 18  1  0
M  END
>  <AAScore>  (1) 
8688.725022781276

>  <RootName>  (1) 
./4ZLY/04_DeltaGEst/trajectory_02/rank_00/lead_0177

$$$$
