confid_0
     RDKit          3D

 27 29  0  0  0  0  0  0  0  0999 V2000
   24.5700   26.8800   35.5900 N   0  0  0  0  0  0  0  0  0  0  0  0
   25.5000   26.4000   34.6900 C   0  0  0  0  0  0  0  0  0  0  0  0
   25.1700   25.5200   33.9100 O   0  0  0  0  0  0  0  0  0  0  0  0
   26.8400   27.0200   34.7400 C   0  0  0  0  0  0  0  0  0  0  0  0
   27.3800   27.2800   35.9400 N   0  0  0  0  0  0  0  0  0  0  0  0
   28.6200   27.7400   36.0300 N   0  0  0  0  0  0  0  0  0  0  0  0
   29.3800   28.0000   34.9600 C   0  0  0  0  0  0  0  0  0  0  0  0
   30.6700   28.5000   35.1300 C   0  0  0  0  0  0  0  0  0  0  0  0
   31.5400   28.6100   34.0300 C   0  0  0  0  0  0  0  0  0  0  0  0
   31.0900   28.2200   32.7700 C   0  0  0  0  0  0  0  0  0  0  0  0
   29.8000   27.7000   32.6000 C   0  0  0  0  0  0  0  0  0  0  0  0
   28.9600   27.5500   33.7100 C   0  0  0  0  0  0  0  0  0  0  0  0
   27.6600   27.0300   33.5900 C   0  0  0  0  0  0  0  0  0  0  0  0
   27.1600   26.7400   32.3400 N   0  0  0  0  0  0  0  0  0  0  0  0
   33.1860   29.2136   34.2790 S   0  0  0  0  0  6  0  0  0  0  0  0
   33.1650   30.1597   35.4490 O   0  0  0  0  0  0  0  0  0  0  0  0
   34.0730   28.0498   34.6192 O   0  0  0  0  0  0  0  0  0  0  0  0
   33.9142   30.1204   32.8994 C   0  0  1  0  0  0  0  0  0  0  0  0
   34.4750   29.2116   31.8132 C   0  0  0  0  0  0  0  0  0  0  0  0
   34.2981   29.9210   30.5428 N   0  0  0  0  0  0  0  0  0  0  0  0
   33.0439   30.6898   30.6882 C   0  0  2  0  0  0  0  0  0  0  0  0
   32.9905   31.8756   29.7107 C   0  0  0  0  0  0  0  0  0  0  0  0
   32.9374   31.0729   32.1903 C   0  0  2  0  0  0  0  0  0  0  0  0
   33.2769   32.5381   32.5281 C   0  0  0  0  0  0  0  0  0  0  0  0
   34.4664   29.0198   29.3664 C   0  0  0  0  0  0  0  0  0  0  0  0
   35.1746   29.7566   28.2229 C   0  0  0  0  0  0  0  0  0  0  0  0
   33.1760   28.3377   28.8734 C   0  0  0  0  0  0  0  0  0  0  0  0
  1  2  1  0
  2  3  2  0
  2  4  1  0
  4  5  2  0
  5  6  1  0
  6  7  2  0
  7  8  1  0
  8  9  2  0
  9 10  1  0
 10 11  2  0
 11 12  1  0
 12 13  2  0
 13 14  1  0
  9 15  1  0
 15 16  2  0
 15 17  2  0
 18 15  1  1
 18 19  1  0
 19 20  1  0
 20 21  1  0
 21 22  1  6
 21 23  1  0
 23 24  1  6
 20 25  1  0
 25 26  1  0
 25 27  1  0
 13  4  1  0
 23 18  1  0
 12  7  1  0
M  END
>  <AAScore>  (1) 
-5.996549890422121

>  <RootName>  (1) 
./4ZLY/04_DeltaGEst/trajectory_05/rank_01/lead_0312

$$$$
