confid_2
     RDKit          3D

 28 31  0  0  0  0  0  0  0  0999 V2000
   24.5500   26.3900   36.2500 N   0  0  0  0  0  0  0  0  0  0  0  0
   25.6000   26.1300   35.4000 C   0  0  0  0  0  0  0  0  0  0  0  0
   25.4300   25.4300   34.4200 O   0  0  0  0  0  0  0  0  0  0  0  0
   26.9800   26.6300   35.7100 C   0  0  0  0  0  0  0  0  0  0  0  0
   27.3200   26.8200   36.9800 N   0  0  0  0  0  0  0  0  0  0  0  0
   28.4700   27.4000   37.3100 N   0  0  0  0  0  0  0  0  0  0  0  0
   29.4000   27.6300   36.3700 C   0  0  0  0  0  0  0  0  0  0  0  0
   30.6600   28.0500   36.8000 C   0  0  0  0  0  0  0  0  0  0  0  0
   31.5700   28.3600   35.7800 C   0  0  0  0  0  0  0  0  0  0  0  0
   31.3700   28.1000   34.4300 C   0  0  0  0  0  0  0  0  0  0  0  0
   30.1200   27.5900   34.0500 C   0  0  0  0  0  0  0  0  0  0  0  0
   29.1500   27.3400   35.0300 C   0  0  0  0  0  0  0  0  0  0  0  0
   27.8800   26.8900   34.6600 C   0  0  0  0  0  0  0  0  0  0  0  0
   27.4800   26.6100   33.3700 N   0  0  0  0  0  0  0  0  0  0  0  0
   23.1694   26.1287   35.9423 C   0  0  0  0  0  0  0  0  0  0  0  0
   22.7357   26.0190   34.7295 N   0  0  0  0  0  0  0  0  0  0  0  0
   21.3396   25.7950   34.8022 C   0  0  0  0  0  0  0  0  0  0  0  0
   20.9237   25.7510   36.0567 C   0  0  0  0  0  0  0  0  0  0  0  0
   19.5052   25.4942   36.4576 C   0  0  0  0  0  0  0  0  0  0  0  0
   18.7742   26.7051   36.3944 O   0  0  0  0  0  0  0  0  0  0  0  0
   18.4299   27.1767   37.6840 C   0  0  0  0  0  0  0  0  0  0  0  0
   19.5163   28.0918   38.2619 C   0  0  0  0  0  0  0  0  0  0  0  0
   20.7538   27.3372   38.7965 C   0  0  0  0  0  0  0  0  0  0  0  0
   21.9367   27.2920   37.8033 C   0  0  0  0  0  0  0  0  0  0  0  0
   22.0865   25.9754   36.9854 C   0  0  2  0  0  0  0  0  0  0  0  0
   22.3673   24.7151   37.8466 C   0  0  0  0  0  0  0  0  0  0  0  0
   23.5427   24.9229   38.7109 N   0  0  0  0  0  0  0  0  0  0  0  0
   24.4977   23.8183   38.5942 C   0  0  0  0  0  0  0  0  0  0  0  0
  1  2  1  0
  2  3  2  0
  2  4  1  0
  4  5  2  0
  5  6  1  0
  6  7  2  0
  7  8  1  0
  8  9  2  0
  9 10  1  0
 10 11  2  0
 11 12  1  0
 12 13  2  0
 13 14  1  0
  1 15  1  0
 15 16  2  0
 16 17  1  0
 17 18  2  0
 18 19  1  0
 19 20  1  0
 20 21  1  0
 21 22  1  0
 22 23  1  0
 23 24  1  0
 24 25  1  0
 25 26  1  1
 26 27  1  0
 27 28  1  0
 13  4  1  0
 25 15  1  0
 12  7  1  0
 25 18  1  0
M  END
>  <AAScore>  (1) 
3932.71287902272

>  <RootName>  (1) 
./4ZLY/04_DeltaGEst/trajectory_01/rank_00/lead_0357

$$$$
