confid_19
     RDKit          3D

 31 34  0  0  0  0  0  0  0  0999 V2000
   24.2000   26.2400   35.6900 N   0  0  0  0  0  0  0  0  0  0  0  0
   24.8500   26.2800   34.4800 C   0  0  0  0  0  0  0  0  0  0  0  0
   24.3100   25.7400   33.5400 O   0  0  0  0  0  0  0  0  0  0  0  0
   26.1800   26.9700   34.4700 C   0  0  0  0  0  0  0  0  0  0  0  0
   26.6500   27.6000   35.5500 N   0  0  0  0  0  0  0  0  0  0  0  0
   27.7900   28.2700   35.6200 N   0  0  0  0  0  0  0  0  0  0  0  0
   28.5400   28.3000   34.5100 C   0  0  0  0  0  0  0  0  0  0  0  0
   29.7700   28.9400   34.5600 C   0  0  0  0  0  0  0  0  0  0  0  0
   30.7000   28.8900   33.5000 C   0  0  0  0  0  0  0  0  0  0  0  0
   30.3700   28.1400   32.3700 C   0  0  0  0  0  0  0  0  0  0  0  0
   29.1200   27.5200   32.2800 C   0  0  0  0  0  0  0  0  0  0  0  0
   28.2100   27.6100   33.3300 C   0  0  0  0  0  0  0  0  0  0  0  0
   26.9700   26.9700   33.3100 C   0  0  0  0  0  0  0  0  0  0  0  0
   26.5300   26.2400   32.2200 N   0  0  0  0  0  0  0  0  0  0  0  0
   23.3683   25.1547   36.1481 C   0  0  0  0  0  0  0  0  0  0  0  0
   23.0783   24.1664   35.3458 N   0  0  0  0  0  0  0  0  0  0  0  0
   22.3408   22.9952   35.7078 C   0  0  0  0  0  0  0  0  0  0  0  0
   21.0327   22.7717   35.4275 C   0  0  0  0  0  0  0  0  0  0  0  0
   20.4807   21.4063   35.8230 C   0  0  0  0  0  0  0  0  0  0  0  0
   19.9047   20.6539   34.6889 N   0  0  0  0  0  0  0  0  0  0  0  0
   18.5024   20.9952   34.3833 C   0  0  0  0  0  0  0  0  0  0  0  0
   18.3008   22.4181   33.8366 C   0  0  0  0  0  0  0  0  0  0  0  0
   18.6794   23.5043   34.8459 C   0  0  0  0  0  0  0  0  0  0  0  0
   20.1304   23.7558   34.8349 N   0  0  0  0  0  0  0  0  0  0  0  0
   20.5681   25.0313   34.2350 C   0  0  0  0  0  0  0  0  0  0  0  0
   20.5626   26.2042   35.2478 C   0  0  0  0  0  0  0  0  0  0  0  0
   20.4604   25.7349   36.6618 N   0  0  0  0  0  0  0  0  0  0  0  0
   19.1583   26.1192   37.2413 C   0  0  0  0  0  0  0  0  0  0  0  0
   21.5621   26.2413   37.5164 C   0  0  0  0  0  0  0  0  0  0  0  0
   22.7491   25.2680   37.5209 C   0  0  0  0  0  0  0  0  0  0  0  0
   20.7755   20.5791   33.5051 C   0  0  0  0  0  0  0  0  0  0  0  0
  1  2  1  0
  2  3  2  0
  2  4  1  0
  4  5  2  0
  5  6  1  0
  6  7  2  0
  7  8  1  0
  8  9  2  0
  9 10  1  0
 10 11  2  0
 11 12  1  0
 12 13  2  0
 13 14  1  0
  1 15  1  0
 15 16  2  0
 16 17  1  0
 17 18  2  0
 18 19  1  0
 19 20  1  0
 20 21  1  0
 21 22  1  0
 22 23  1  0
 23 24  1  0
 24 25  1  0
 25 26  1  0
 26 27  1  0
 27 28  1  0
 27 29  1  0
 29 30  1  0
 20 31  1  0
 13  4  1  0
 30 15  1  0
 12  7  1  0
 24 18  1  0
M  END
>  <AAScore>  (1) 
3134.1477242642627

>  <RootName>  (1) 
./4ZLY/04_DeltaGEst/trajectory_04/rank_00/lead_0157

$$$$
