confid_7
     RDKit          3D

 27 31  0  0  0  0  0  0  0  0999 V2000
   25.3300   26.2600   34.7600 N   0  0  0  0  0  0  0  0  0  0  0  0
   26.1200   25.9200   33.6900 C   0  0  0  0  0  0  0  0  0  0  0  0
   25.6300   25.1100   32.9400 O   0  0  0  0  0  0  0  0  0  0  0  0
   27.5200   26.3800   33.4600 C   0  0  0  0  0  0  0  0  0  0  0  0
   28.1600   26.6300   34.6100 N   0  0  0  0  0  0  0  0  0  0  0  0
   29.4800   26.8500   34.5700 N   0  0  0  0  0  0  0  0  0  0  0  0
   30.1900   26.7800   33.4400 C   0  0  0  0  0  0  0  0  0  0  0  0
   31.5600   27.0500   33.5000 C   0  0  0  0  0  0  0  0  0  0  0  0
   32.2700   27.2400   32.3100 C   0  0  0  0  0  0  0  0  0  0  0  0
   31.6100   27.2500   31.0800 C   0  0  0  0  0  0  0  0  0  0  0  0
   30.2700   26.8700   31.0600 C   0  0  0  0  0  0  0  0  0  0  0  0
   29.5100   26.6900   32.2300 C   0  0  0  0  0  0  0  0  0  0  0  0
   28.1400   26.4100   32.2000 C   0  0  0  0  0  0  0  0  0  0  0  0
   27.4300   26.1300   31.0500 N   0  0  0  0  0  0  0  0  0  0  0  0
   23.9004   26.1062   34.7970 C   0  0  0  0  0  0  0  0  0  0  0  0
   23.1459   25.8161   33.7024 N   0  0  0  0  0  0  0  0  0  0  0  0
   21.8461   25.7491   34.0655 C   0  0  0  0  0  0  0  0  0  0  0  0
   20.6695   25.2671   33.3166 C   0  0  0  0  0  0  0  0  0  0  0  0
   19.6542   25.1710   34.3760 N   0  0  0  0  0  0  0  0  0  0  0  0
   18.3172   24.7083   34.1367 C   0  0  0  0  0  0  0  0  0  0  0  0
   17.9071   24.5724   32.9512 O   0  0  0  0  0  0  0  0  0  0  0  0
   17.3935   24.4023   35.2830 C   0  0  0  0  0  0  0  0  0  0  0  0
   17.7237   23.0968   35.9957 C   0  0  0  0  0  0  0  0  0  0  0  0
   16.4991   23.1813   35.1003 C   0  0  0  0  0  0  0  0  0  0  0  0
   20.1777   25.5598   35.6966 C   0  0  0  0  0  0  0  0  0  0  0  0
   21.5666   25.9358   35.3692 C   0  0  0  0  0  0  0  0  0  0  0  0
   22.9776   26.2215   36.2290 S   0  0  0  0  0  0  0  0  0  0  0  0
  1  2  1  0
  2  3  2  0
  2  4  1  0
  4  5  2  0
  5  6  1  0
  6  7  2  0
  7  8  1  0
  8  9  2  0
  9 10  1  0
 10 11  2  0
 11 12  1  0
 12 13  2  0
 13 14  1  0
  1 15  1  0
 15 16  2  0
 16 17  1  0
 17 18  1  0
 18 19  1  0
 19 20  1  0
 20 21  2  0
 20 22  1  0
 22 23  1  0
 23 24  1  0
 19 25  1  0
 25 26  1  0
 26 27  1  0
 13  4  1  0
 27 15  1  0
 12  7  1  0
 26 17  2  0
 24 22  1  0
M  END
>  <AAScore>  (1) 
1557.1794959289628

>  <RootName>  (1) 
./4ZLY/04_DeltaGEst/trajectory_03/rank_00/lead_0319

$$$$
