confid_0
     RDKit          3D

 27 31  0  0  0  0  0  0  0  0999 V2000
   24.4800   26.1000   36.1300 N   0  0  0  0  0  0  0  0  0  0  0  0
   25.2500   26.2500   34.9900 C   0  0  0  0  0  0  0  0  0  0  0  0
   24.7400   25.7600   33.9900 O   0  0  0  0  0  0  0  0  0  0  0  0
   26.5900   26.8900   34.9600 C   0  0  0  0  0  0  0  0  0  0  0  0
   27.0600   27.2400   36.1600 N   0  0  0  0  0  0  0  0  0  0  0  0
   28.3000   27.7100   36.2400 N   0  0  0  0  0  0  0  0  0  0  0  0
   29.0500   27.9600   35.1500 C   0  0  0  0  0  0  0  0  0  0  0  0
   30.3400   28.4900   35.2600 C   0  0  0  0  0  0  0  0  0  0  0  0
   31.1100   28.8200   34.1400 C   0  0  0  0  0  0  0  0  0  0  0  0
   30.5200   28.6700   32.8800 C   0  0  0  0  0  0  0  0  0  0  0  0
   29.2900   28.0200   32.7700 C   0  0  0  0  0  0  0  0  0  0  0  0
   28.5200   27.7100   33.8900 C   0  0  0  0  0  0  0  0  0  0  0  0
   27.2700   27.0800   33.7600 C   0  0  0  0  0  0  0  0  0  0  0  0
   26.7500   26.8800   32.4900 N   0  0  0  0  0  0  0  0  0  0  0  0
   23.5297   25.0403   36.3578 C   0  0  0  0  0  0  0  0  0  0  0  0
   23.7192   23.7551   35.8218 C   0  0  0  0  0  0  0  0  0  0  0  0
   22.7935   22.7371   36.0710 C   0  0  0  0  0  0  0  0  0  0  0  0
   23.0063   21.4717   35.5061 O   0  0  0  0  0  0  0  0  0  0  0  0
   22.0032   20.4547   35.4928 C   0  0  0  0  0  0  0  0  0  0  0  0
   21.2689   20.4023   36.8341 C   0  0  1  0  0  0  0  0  0  0  0  0
   22.1694   20.0042   37.8342 O   0  0  0  0  0  0  0  0  0  0  0  0
   20.7296   21.8124   37.1513 C   0  0  0  0  0  0  0  0  0  0  0  0
   19.6242   21.8861   38.2035 C   0  0  0  0  0  0  0  0  0  0  0  0
   19.2864   22.0737   36.7279 C   0  0  0  0  0  0  0  0  0  0  0  0
   21.6763   22.9766   36.8978 C   0  0  0  0  0  0  0  0  0  0  0  0
   21.4960   24.2638   37.4415 C   0  0  0  0  0  0  0  0  0  0  0  0
   22.4195   25.2787   37.1781 C   0  0  0  0  0  0  0  0  0  0  0  0
  1  2  1  0
  2  3  2  0
  2  4  1  0
  4  5  2  0
  5  6  1  0
  6  7  2  0
  7  8  1  0
  8  9  2  0
  9 10  1  0
 10 11  2  0
 11 12  1  0
 12 13  2  0
 13 14  1  0
  1 15  1  0
 15 16  2  0
 16 17  1  0
 17 18  1  0
 18 19  1  0
 19 20  1  0
 20 21  1  1
 20 22  1  0
 22 23  1  0
 23 24  1  0
 22 25  1  0
 25 26  1  0
 26 27  2  0
 13  4  1  0
 27 15  1  0
 12  7  1  0
 25 17  2  0
 24 22  1  0
M  END
>  <AAScore>  (1) 
1284.294210425291

>  <RootName>  (1) 
./4ZLY/04_DeltaGEst/trajectory_00/rank_00/lead_0121

$$$$
