confid_7
     RDKit          3D

 28 31  0  0  0  0  0  0  0  0999 V2000
   24.5700   26.8800   35.5900 N   0  0  0  0  0  0  0  0  0  0  0  0
   25.5000   26.4000   34.6900 C   0  0  0  0  0  0  0  0  0  0  0  0
   25.1700   25.5200   33.9100 O   0  0  0  0  0  0  0  0  0  0  0  0
   26.8400   27.0200   34.7400 C   0  0  0  0  0  0  0  0  0  0  0  0
   27.3800   27.2800   35.9400 N   0  0  0  0  0  0  0  0  0  0  0  0
   28.6200   27.7400   36.0300 N   0  0  0  0  0  0  0  0  0  0  0  0
   29.3800   28.0000   34.9600 C   0  0  0  0  0  0  0  0  0  0  0  0
   30.6700   28.5000   35.1300 C   0  0  0  0  0  0  0  0  0  0  0  0
   31.5400   28.6100   34.0300 C   0  0  0  0  0  0  0  0  0  0  0  0
   31.0900   28.2200   32.7700 C   0  0  0  0  0  0  0  0  0  0  0  0
   29.8000   27.7000   32.6000 C   0  0  0  0  0  0  0  0  0  0  0  0
   28.9600   27.5500   33.7100 C   0  0  0  0  0  0  0  0  0  0  0  0
   27.6600   27.0300   33.5900 C   0  0  0  0  0  0  0  0  0  0  0  0
   27.1600   26.7400   32.3400 N   0  0  0  0  0  0  0  0  0  0  0  0
   23.1693   26.5786   35.5083 C   0  0  0  0  0  0  0  0  0  0  0  0
   22.4632   26.1559   36.5795 N   0  0  0  0  0  0  0  0  0  0  0  0
   21.2167   25.9952   36.0905 C   0  0  0  0  0  0  0  0  0  0  0  0
   20.1246   25.5562   36.8420 O   0  0  0  0  0  0  0  0  0  0  0  0
   20.2325   25.2395   38.2233 C   0  0  0  0  0  0  0  0  0  0  0  0
   21.1782   26.3291   34.7547 C   0  0  0  0  0  0  0  0  0  0  0  0
   22.4144   26.7242   34.3906 N   0  0  0  0  0  0  0  0  0  0  0  0
   22.8305   27.2134   33.0756 C   0  0  0  0  0  0  0  0  0  0  0  0
   19.9689   26.2980   33.8605 C   0  0  0  0  0  0  0  0  0  0  0  0
   19.5024   27.6712   33.5667 N   0  0  0  0  0  0  0  0  0  0  0  0
   18.7730   28.2522   34.7048 C   0  0  0  0  0  0  0  0  0  0  0  0
   17.2914   27.9506   34.5195 C   0  0  0  0  0  0  0  0  0  0  0  0
   17.1418   27.5277   33.0701 C   0  0  0  0  0  0  0  0  0  0  0  0
   18.5300   27.6701   32.4651 C   0  0  0  0  0  0  0  0  0  0  0  0
  1  2  1  0
  2  3  2  0
  2  4  1  0
  4  5  2  0
  5  6  1  0
  6  7  2  0
  7  8  1  0
  8  9  2  0
  9 10  1  0
 10 11  2  0
 11 12  1  0
 12 13  2  0
 13 14  1  0
  1 15  1  0
 15 16  2  0
 16 17  1  0
 17 18  1  0
 18 19  1  0
 17 20  2  0
 20 21  1  0
 21 22  1  0
 20 23  1  0
 23 24  1  0
 24 25  1  0
 25 26  1  0
 26 27  1  0
 27 28  1  0
 13  4  1  0
 21 15  1  0
 28 24  1  0
 12  7  1  0
M  END
>  <AAScore>  (1) 
554.0664815239392

>  <RootName>  (1) 
./4ZLY/04_DeltaGEst/trajectory_05/rank_00/lead_0405

$$$$
