confid_2
     RDKit          3D

 28 31  0  0  0  0  0  0  0  0999 V2000
   24.4800   26.1000   36.1300 N   0  0  0  0  0  0  0  0  0  0  0  0
   25.2500   26.2500   34.9900 C   0  0  0  0  0  0  0  0  0  0  0  0
   24.7400   25.7600   33.9900 O   0  0  0  0  0  0  0  0  0  0  0  0
   26.5900   26.8900   34.9600 C   0  0  0  0  0  0  0  0  0  0  0  0
   27.0600   27.2400   36.1600 N   0  0  0  0  0  0  0  0  0  0  0  0
   28.3000   27.7100   36.2400 N   0  0  0  0  0  0  0  0  0  0  0  0
   29.0500   27.9600   35.1500 C   0  0  0  0  0  0  0  0  0  0  0  0
   30.3400   28.4900   35.2600 C   0  0  0  0  0  0  0  0  0  0  0  0
   31.1100   28.8200   34.1400 C   0  0  0  0  0  0  0  0  0  0  0  0
   30.5200   28.6700   32.8800 C   0  0  0  0  0  0  0  0  0  0  0  0
   29.2900   28.0200   32.7700 C   0  0  0  0  0  0  0  0  0  0  0  0
   28.5200   27.7100   33.8900 C   0  0  0  0  0  0  0  0  0  0  0  0
   27.2700   27.0800   33.7600 C   0  0  0  0  0  0  0  0  0  0  0  0
   26.7500   26.8800   32.4900 N   0  0  0  0  0  0  0  0  0  0  0  0
   23.3892   25.1810   36.3157 C   0  0  0  0  0  0  0  0  0  0  0  0
   22.3624   25.5499   37.1249 N   0  0  0  0  0  0  0  0  0  0  0  0
   21.3235   24.7231   37.3945 C   0  0  0  0  0  0  0  0  0  0  0  0
   21.2845   23.4323   36.8533 C   0  0  0  0  0  0  0  0  0  0  0  0
   20.1783   22.6186   37.1109 O   0  0  0  0  0  0  0  0  0  0  0  0
   18.8638   22.9930   36.6903 C   0  0  0  0  0  0  0  0  0  0  0  0
   18.6082   22.5448   35.2476 C   0  0  0  0  0  0  0  0  0  0  0  0
   19.7779   22.8804   34.3929 N   0  0  0  0  0  0  0  0  0  0  0  0
   20.4680   21.6798   33.8735 C   0  0  0  0  0  0  0  0  0  0  0  0
   21.1853   20.8932   34.9868 C   0  0  0  0  0  0  0  0  0  0  0  0
   22.4684   21.5642   35.5211 C   0  0  0  0  0  0  0  0  0  0  0  0
   22.3492   22.9923   36.0348 C   0  0  0  0  0  0  0  0  0  0  0  0
   23.4090   23.8840   35.7763 C   0  0  0  0  0  0  0  0  0  0  0  0
   19.3939   23.7680   33.2841 C   0  0  0  0  0  0  0  0  0  0  0  0
  1  2  1  0
  2  3  2  0
  2  4  1  0
  4  5  2  0
  5  6  1  0
  6  7  2  0
  7  8  1  0
  8  9  2  0
  9 10  1  0
 10 11  2  0
 11 12  1  0
 12 13  2  0
 13 14  1  0
  1 15  1  0
 15 16  2  0
 16 17  1  0
 17 18  2  0
 18 19  1  0
 19 20  1  0
 20 21  1  0
 21 22  1  0
 22 23  1  0
 23 24  1  0
 24 25  1  0
 25 26  1  0
 26 27  2  0
 22 28  1  0
 13  4  1  0
 27 15  1  0
 12  7  1  0
 26 18  1  0
M  END
>  <AAScore>  (1) 
283.76666216069344

>  <RootName>  (1) 
./4ZLY/04_DeltaGEst/trajectory_00/rank_01/lead_0144

$$$$
