confid_17
     RDKit          3D

 27 30  0  0  0  0  0  0  0  0999 V2000
   24.6900   26.1200   35.5300 N   0  0  0  0  0  0  0  0  0  0  0  0
   25.6600   25.6700   34.6600 C   0  0  0  0  0  0  0  0  0  0  0  0
   25.2400   25.0100   33.7200 O   0  0  0  0  0  0  0  0  0  0  0  0
   27.0300   26.2200   34.8800 C   0  0  0  0  0  0  0  0  0  0  0  0
   27.3500   26.7300   36.0700 N   0  0  0  0  0  0  0  0  0  0  0  0
   28.5700   27.1800   36.3300 N   0  0  0  0  0  0  0  0  0  0  0  0
   29.5300   27.1100   35.3900 C   0  0  0  0  0  0  0  0  0  0  0  0
   30.8300   27.5700   35.6500 C   0  0  0  0  0  0  0  0  0  0  0  0
   31.8500   27.5400   34.6900 C   0  0  0  0  0  0  0  0  0  0  0  0
   31.5100   27.1200   33.4000 C   0  0  0  0  0  0  0  0  0  0  0  0
   30.2200   26.6300   33.1100 C   0  0  0  0  0  0  0  0  0  0  0  0
   29.2400   26.6600   34.1000 C   0  0  0  0  0  0  0  0  0  0  0  0
   27.9300   26.2600   33.8100 C   0  0  0  0  0  0  0  0  0  0  0  0
   27.5200   25.7100   32.6100 N   0  0  0  0  0  0  0  0  0  0  0  0
   31.1480   28.0792   36.9558 N   0  0  0  0  0  0  0  0  0  0  0  0
   31.3791   27.1263   38.0502 C   0  0  0  0  0  0  0  0  0  0  0  0
   31.1038   27.7175   39.4410 C   0  0  0  0  0  0  0  0  0  0  0  0
   29.7413   28.4217   39.5282 C   0  0  0  0  0  0  0  0  0  0  0  0
   29.8593   29.8566   39.1800 N   0  0  0  0  0  0  0  0  0  0  0  0
   28.7552   30.6505   39.7691 C   0  0  0  0  0  0  0  0  0  0  0  0
   27.3981   30.2352   39.2628 C   0  0  0  0  0  0  0  0  0  0  0  0
   26.7156   30.8115   38.2100 C   0  0  0  0  0  0  0  0  0  0  0  0
   25.5529   30.0833   38.0793 C   0  0  0  0  0  0  0  0  0  0  0  0
   25.5965   29.1125   39.0595 C   0  0  0  0  0  0  0  0  0  0  0  0
   26.7084   29.2288   39.7484 O   0  0  0  0  0  0  0  0  0  0  0  0
   29.9672   30.0956   37.7234 C   0  0  0  0  0  0  0  0  0  0  0  0
   31.2664   29.5290   37.1445 C   0  0  0  0  0  0  0  0  0  0  0  0
  1  2  1  0
  2  3  2  0
  2  4  1  0
  4  5  2  0
  5  6  1  0
  6  7  2  0
  7  8  1  0
  8  9  2  0
  9 10  1  0
 10 11  2  0
 11 12  1  0
 12 13  2  0
 13 14  1  0
  8 15  1  0
 15 16  1  0
 16 17  1  0
 17 18  1  0
 18 19  1  0
 19 20  1  0
 20 21  1  0
 21 22  2  0
 22 23  1  0
 23 24  2  0
 24 25  1  0
 19 26  1  0
 26 27  1  0
 13  4  1  0
 27 15  1  0
 12  7  1  0
 25 21  1  0
M  END
>  <AAScore>  (1) 
-6.334347172810862

>  <RootName>  (1) 
./4ZLY/04_DeltaGEst/trajectory_02/rank_01/lead_0420

$$$$
