confid_1
     RDKit          3D

 31 35  0  0  0  0  0  0  0  0999 V2000
   25.3300   26.2600   34.7600 N   0  0  0  0  0  0  0  0  0  0  0  0
   26.1200   25.9200   33.6900 C   0  0  0  0  0  0  0  0  0  0  0  0
   25.6300   25.1100   32.9400 O   0  0  0  0  0  0  0  0  0  0  0  0
   27.5200   26.3800   33.4600 C   0  0  0  0  0  0  0  0  0  0  0  0
   28.1600   26.6300   34.6100 N   0  0  0  0  0  0  0  0  0  0  0  0
   29.4800   26.8500   34.5700 N   0  0  0  0  0  0  0  0  0  0  0  0
   30.1900   26.7800   33.4400 C   0  0  0  0  0  0  0  0  0  0  0  0
   31.5600   27.0500   33.5000 C   0  0  0  0  0  0  0  0  0  0  0  0
   32.2700   27.2400   32.3100 C   0  0  0  0  0  0  0  0  0  0  0  0
   31.6100   27.2500   31.0800 C   0  0  0  0  0  0  0  0  0  0  0  0
   30.2700   26.8700   31.0600 C   0  0  0  0  0  0  0  0  0  0  0  0
   29.5100   26.6900   32.2300 C   0  0  0  0  0  0  0  0  0  0  0  0
   28.1400   26.4100   32.2000 C   0  0  0  0  0  0  0  0  0  0  0  0
   27.4300   26.1300   31.0500 N   0  0  0  0  0  0  0  0  0  0  0  0
   26.5934   27.1641   30.4377 C   0  0  0  0  0  0  0  0  0  0  0  0
   26.5408   26.9469   28.9232 C   0  0  0  0  0  0  0  0  0  0  0  0
   26.0160   25.6070   28.5623 N   0  0  0  0  0  0  0  0  0  0  0  0
   26.4187   25.2497   27.1865 C   0  0  0  0  0  0  0  0  0  0  0  0
   25.4761   24.2359   26.6127 C   0  0  0  0  0  0  0  0  0  0  0  0
   24.1742   24.4758   26.3331 N   0  0  0  0  0  0  0  0  0  0  0  0
   23.7002   23.2872   25.8836 C   0  0  0  0  0  0  0  0  0  0  0  0
   24.6446   22.3278   25.8917 N   0  0  0  0  0  0  0  0  0  0  0  0
   24.5675   20.9306   25.4749 C   0  0  0  0  0  0  0  0  0  0  0  0
   25.7118   20.1081   26.1438 C   0  0  0  0  0  0  0  0  0  0  0  0
   25.8403   18.7437   25.4401 C   0  0  0  0  0  0  0  0  0  0  0  0
   25.3853   19.8716   27.6350 C   0  0  0  0  0  0  0  0  0  0  0  0
   27.0600   20.8857   26.0184 C   0  0  0  0  0  0  0  0  0  0  0  0
   26.9468   22.2265   26.5089 O   0  0  0  0  0  0  0  0  0  0  0  0
   25.7527   22.9205   26.3345 C   0  0  0  0  0  0  0  0  0  0  0  0
   26.3362   24.5289   29.5387 C   0  0  0  0  0  0  0  0  0  0  0  0
   27.5753   24.8270   30.3935 C   0  0  0  0  0  0  0  0  0  0  0  0
  1  2  1  0
  2  3  2  0
  2  4  1  0
  4  5  2  0
  5  6  1  0
  6  7  2  0
  7  8  1  0
  8  9  2  0
  9 10  1  0
 10 11  2  0
 11 12  1  0
 12 13  2  0
 13 14  1  0
 14 15  1  0
 15 16  1  0
 16 17  1  0
 17 18  1  0
 18 19  1  0
 19 20  1  0
 20 21  2  0
 21 22  1  0
 22 23  1  0
 23 24  1  0
 24 25  1  0
 24 26  1  0
 24 27  1  0
 27 28  1  0
 28 29  1  0
 17 30  1  0
 30 31  1  0
 13  4  1  0
 31 14  1  0
 12  7  1  0
 29 19  2  0
 29 22  1  0
M  END
>  <AAScore>  (1) 
21.57687609137679

>  <RootName>  (1) 
./4ZLY/04_DeltaGEst/trajectory_03/rank_01/lead_0068

$$$$
