confid_7
     RDKit          3D

 29 32  0  0  0  0  0  0  0  0999 V2000
   24.4800   26.1000   36.1300 N   0  0  0  0  0  0  0  0  0  0  0  0
   25.2500   26.2500   34.9900 C   0  0  0  0  0  0  0  0  0  0  0  0
   24.7400   25.7600   33.9900 O   0  0  0  0  0  0  0  0  0  0  0  0
   26.5900   26.8900   34.9600 C   0  0  0  0  0  0  0  0  0  0  0  0
   27.0600   27.2400   36.1600 N   0  0  0  0  0  0  0  0  0  0  0  0
   28.3000   27.7100   36.2400 N   0  0  0  0  0  0  0  0  0  0  0  0
   29.0500   27.9600   35.1500 C   0  0  0  0  0  0  0  0  0  0  0  0
   30.3400   28.4900   35.2600 C   0  0  0  0  0  0  0  0  0  0  0  0
   31.1100   28.8200   34.1400 C   0  0  0  0  0  0  0  0  0  0  0  0
   30.5200   28.6700   32.8800 C   0  0  0  0  0  0  0  0  0  0  0  0
   29.2900   28.0200   32.7700 C   0  0  0  0  0  0  0  0  0  0  0  0
   28.5200   27.7100   33.8900 C   0  0  0  0  0  0  0  0  0  0  0  0
   27.2700   27.0800   33.7600 C   0  0  0  0  0  0  0  0  0  0  0  0
   26.7500   26.8800   32.4900 N   0  0  0  0  0  0  0  0  0  0  0  0
   23.5182   25.0491   36.3488 C   0  0  0  0  0  0  0  0  0  0  0  0
   22.3960   25.3018   37.1480 C   0  0  0  0  0  0  0  0  0  0  0  0
   21.4530   24.3000   37.3859 C   0  0  0  0  0  0  0  0  0  0  0  0
   21.6222   23.0181   36.8401 C   0  0  0  0  0  0  0  0  0  0  0  0
   20.5948   21.9367   37.1142 C   0  0  0  0  0  0  0  0  0  0  0  0
   20.0089   21.2634   35.8454 C   0  0  0  0  0  0  0  0  0  0  0  0
   20.6142   21.7649   34.5918 N   0  0  0  0  0  0  0  0  0  0  0  0
   19.5434   21.4491   33.2455 S   0  0  0  0  0  6  0  0  0  0  0  0
   20.2450   21.7481   31.9497 O   0  0  0  0  0  0  0  0  0  0  0  0
   19.1139   20.0080   33.2515 O   0  0  0  0  0  0  0  0  0  0  0  0
   18.1055   22.4956   33.3502 C   0  0  0  0  0  0  0  0  0  0  0  0
   21.9280   21.1404   34.3190 C   0  0  0  0  0  0  0  0  0  0  0  0
   22.9521   21.3807   35.4426 C   0  0  0  0  0  0  0  0  0  0  0  0
   22.7725   22.7418   36.0678 C   0  0  0  0  0  0  0  0  0  0  0  0
   23.7091   23.7590   35.8235 C   0  0  0  0  0  0  0  0  0  0  0  0
  1  2  1  0
  2  3  2  0
  2  4  1  0
  4  5  2  0
  5  6  1  0
  6  7  2  0
  7  8  1  0
  8  9  2  0
  9 10  1  0
 10 11  2  0
 11 12  1  0
 12 13  2  0
 13 14  1  0
  1 15  1  0
 15 16  2  0
 16 17  1  0
 17 18  2  0
 18 19  1  0
 19 20  1  0
 20 21  1  0
 21 22  1  0
 22 23  2  0
 22 24  2  0
 22 25  1  0
 21 26  1  0
 26 27  1  0
 27 28  1  0
 28 29  2  0
 13  4  1  0
 29 15  1  0
 12  7  1  0
 28 18  1  0
M  END
>  <AAScore>  (1) 
454.351528997678

>  <RootName>  (1) 
./4ZLY/04_DeltaGEst/trajectory_00/rank_00/lead_0031

$$$$
