confid_15
     RDKit          3D

 27 30  0  0  0  0  0  0  0  0999 V2000
   24.2000   26.2400   35.6900 N   0  0  0  0  0  0  0  0  0  0  0  0
   24.8500   26.2800   34.4800 C   0  0  0  0  0  0  0  0  0  0  0  0
   24.3100   25.7400   33.5400 O   0  0  0  0  0  0  0  0  0  0  0  0
   26.1800   26.9700   34.4700 C   0  0  0  0  0  0  0  0  0  0  0  0
   26.6500   27.6000   35.5500 N   0  0  0  0  0  0  0  0  0  0  0  0
   27.7900   28.2700   35.6200 N   0  0  0  0  0  0  0  0  0  0  0  0
   28.5400   28.3000   34.5100 C   0  0  0  0  0  0  0  0  0  0  0  0
   29.7700   28.9400   34.5600 C   0  0  0  0  0  0  0  0  0  0  0  0
   30.7000   28.8900   33.5000 C   0  0  0  0  0  0  0  0  0  0  0  0
   30.3700   28.1400   32.3700 C   0  0  0  0  0  0  0  0  0  0  0  0
   29.1200   27.5200   32.2800 C   0  0  0  0  0  0  0  0  0  0  0  0
   28.2100   27.6100   33.3300 C   0  0  0  0  0  0  0  0  0  0  0  0
   26.9700   26.9700   33.3100 C   0  0  0  0  0  0  0  0  0  0  0  0
   26.5300   26.2400   32.2200 N   0  0  0  0  0  0  0  0  0  0  0  0
   30.1175   29.7037   35.7288 N   0  0  0  0  0  0  0  0  0  0  0  0
   29.4382   30.9762   35.9897 C   0  0  0  0  0  0  0  0  0  0  0  0
   30.3849   32.1461   35.7082 C   0  0  0  0  0  0  0  0  0  0  0  0
   31.4780   32.4043   36.7449 C   0  0  0  0  0  0  0  0  0  0  0  0
   32.1459   33.6594   36.7283 C   0  0  0  0  0  0  0  0  0  0  0  0
   33.1029   33.9344   37.6529 N   0  0  0  0  0  0  0  0  0  0  0  0
   33.4795   33.0409   38.5971 C   0  0  0  0  0  0  0  0  0  0  0  0
   32.8939   31.7817   38.6353 C   0  0  0  0  0  0  0  0  0  0  0  0
   31.8959   31.4391   37.7100 C   0  0  0  0  0  0  0  0  0  0  0  0
   31.3495   30.1057   37.7527 N   0  0  0  0  0  0  0  0  0  0  0  0
   30.9944   29.4813   39.0302 C   0  0  0  0  0  0  0  0  0  0  0  0
   31.2782   29.3078   36.5265 C   0  0  0  0  0  0  0  0  0  0  0  0
   31.8161   34.7321   35.7289 C   0  0  0  0  0  0  0  0  0  0  0  0
  1  2  1  0
  2  3  2  0
  2  4  1  0
  4  5  2  0
  5  6  1  0
  6  7  2  0
  7  8  1  0
  8  9  2  0
  9 10  1  0
 10 11  2  0
 11 12  1  0
 12 13  2  0
 13 14  1  0
  8 15  1  0
 15 16  1  0
 16 17  1  0
 17 18  1  0
 18 19  2  0
 19 20  1  0
 20 21  2  0
 21 22  1  0
 22 23  2  0
 23 24  1  0
 24 25  1  0
 24 26  1  0
 19 27  1  0
 13  4  1  0
 26 15  1  0
 12  7  1  0
 23 18  1  0
M  END
>  <AAScore>  (1) 
-6.252720114793681

>  <RootName>  (1) 
./4ZLY/04_DeltaGEst/trajectory_04/rank_01/lead_0294

$$$$
