confid_11
     RDKit          3D

 27 31  0  0  0  0  0  0  0  0999 V2000
   24.2000   26.2400   35.6900 N   0  0  0  0  0  0  0  0  0  0  0  0
   24.8500   26.2800   34.4800 C   0  0  0  0  0  0  0  0  0  0  0  0
   24.3100   25.7400   33.5400 O   0  0  0  0  0  0  0  0  0  0  0  0
   26.1800   26.9700   34.4700 C   0  0  0  0  0  0  0  0  0  0  0  0
   26.6500   27.6000   35.5500 N   0  0  0  0  0  0  0  0  0  0  0  0
   27.7900   28.2700   35.6200 N   0  0  0  0  0  0  0  0  0  0  0  0
   28.5400   28.3000   34.5100 C   0  0  0  0  0  0  0  0  0  0  0  0
   29.7700   28.9400   34.5600 C   0  0  0  0  0  0  0  0  0  0  0  0
   30.7000   28.8900   33.5000 C   0  0  0  0  0  0  0  0  0  0  0  0
   30.3700   28.1400   32.3700 C   0  0  0  0  0  0  0  0  0  0  0  0
   29.1200   27.5200   32.2800 C   0  0  0  0  0  0  0  0  0  0  0  0
   28.2100   27.6100   33.3300 C   0  0  0  0  0  0  0  0  0  0  0  0
   26.9700   26.9700   33.3100 C   0  0  0  0  0  0  0  0  0  0  0  0
   26.5300   26.2400   32.2200 N   0  0  0  0  0  0  0  0  0  0  0  0
   30.1367   29.6653   35.7467 N   0  0  0  0  0  0  0  0  0  0  0  0
   31.3435   29.2944   36.4837 C   0  0  0  0  0  0  0  0  0  0  0  0
   31.0531   29.3419   37.9803 C   0  0  0  0  0  0  0  0  0  0  0  0
   30.3970   30.6458   38.3852 C   0  0  0  0  0  0  0  0  0  0  0  0
   30.4447   31.1059   39.7211 C   0  0  0  0  0  0  0  0  0  0  0  0
   29.8535   32.3376   40.0278 C   0  0  0  0  0  0  0  0  0  0  0  0
   29.1884   33.0278   39.0694 N   0  0  0  0  0  0  0  0  0  0  0  0
   29.0900   32.5690   37.8231 N   0  0  0  0  0  0  0  0  0  0  0  0
   29.6619   31.3970   37.4418 C   0  0  0  0  0  0  0  0  0  0  0  0
   29.5279   30.9748   36.0003 C   0  0  0  0  0  0  0  0  0  0  0  0
   31.1989   30.3583   40.7965 C   0  0  0  0  0  0  0  0  0  0  0  0
   30.6138   28.9995   41.1627 C   0  0  0  0  0  0  0  0  0  0  0  0
   30.4624   30.1661   42.1182 C   0  0  0  0  0  0  0  0  0  0  0  0
  1  2  1  0
  2  3  2  0
  2  4  1  0
  4  5  2  0
  5  6  1  0
  6  7  2  0
  7  8  1  0
  8  9  2  0
  9 10  1  0
 10 11  2  0
 11 12  1  0
 12 13  2  0
 13 14  1  0
  8 15  1  0
 15 16  1  0
 16 17  1  0
 17 18  1  0
 18 19  2  0
 19 20  1  0
 20 21  2  0
 21 22  1  0
 22 23  2  0
 23 24  1  0
 19 25  1  0
 25 26  1  0
 26 27  1  0
 13  4  1  0
 24 15  1  0
 27 25  1  0
 12  7  1  0
 23 18  1  0
M  END
>  <AAScore>  (1) 
-9.339323578155424

>  <RootName>  (1) 
./4ZLY/04_DeltaGEst/trajectory_04/rank_01/lead_0473

$$$$
