confid_9
     RDKit          3D

 27 30  0  0  0  0  0  0  0  0999 V2000
   25.3300   26.2600   34.7600 N   0  0  0  0  0  0  0  0  0  0  0  0
   26.1200   25.9200   33.6900 C   0  0  0  0  0  0  0  0  0  0  0  0
   25.6300   25.1100   32.9400 O   0  0  0  0  0  0  0  0  0  0  0  0
   27.5200   26.3800   33.4600 C   0  0  0  0  0  0  0  0  0  0  0  0
   28.1600   26.6300   34.6100 N   0  0  0  0  0  0  0  0  0  0  0  0
   29.4800   26.8500   34.5700 N   0  0  0  0  0  0  0  0  0  0  0  0
   30.1900   26.7800   33.4400 C   0  0  0  0  0  0  0  0  0  0  0  0
   31.5600   27.0500   33.5000 C   0  0  0  0  0  0  0  0  0  0  0  0
   32.2700   27.2400   32.3100 C   0  0  0  0  0  0  0  0  0  0  0  0
   31.6100   27.2500   31.0800 C   0  0  0  0  0  0  0  0  0  0  0  0
   30.2700   26.8700   31.0600 C   0  0  0  0  0  0  0  0  0  0  0  0
   29.5100   26.6900   32.2300 C   0  0  0  0  0  0  0  0  0  0  0  0
   28.1400   26.4100   32.2000 C   0  0  0  0  0  0  0  0  0  0  0  0
   27.4300   26.1300   31.0500 N   0  0  0  0  0  0  0  0  0  0  0  0
   26.4208   27.0940   30.5896 C   0  0  0  0  0  0  0  0  0  0  0  0
   26.2681   27.0445   29.0747 C   0  0  0  0  0  0  0  0  0  0  0  0
   27.5895   26.9792   28.4546 N   0  0  0  0  0  0  0  0  0  0  0  0
   28.2504   28.2362   28.0870 C   0  0  0  0  0  0  0  0  0  0  0  0
   28.2175   25.6977   28.2127 C   0  0  0  0  0  0  0  0  0  0  0  0
   28.9057   25.4918   26.9972 C   0  0  0  0  0  0  0  0  0  0  0  0
   28.9567   26.4611   26.0493 F   0  0  0  0  0  0  0  0  0  0  0  0
   29.5127   24.2719   26.7197 C   0  0  0  0  0  0  0  0  0  0  0  0
   29.4053   23.2179   27.6154 C   0  0  0  0  0  0  0  0  0  0  0  0
   28.6948   23.3650   28.8067 C   0  0  0  0  0  0  0  0  0  0  0  0
   28.5408   22.2212   29.5965 O   0  0  0  0  0  0  0  0  0  0  0  0
   28.1432   24.6280   29.1634 C   0  0  0  0  0  0  0  0  0  0  0  0
   27.4392   24.7601   30.5122 C   0  0  0  0  0  0  0  0  0  0  0  0
  1  2  1  0
  2  3  2  0
  2  4  1  0
  4  5  2  0
  5  6  1  0
  6  7  2  0
  7  8  1  0
  8  9  2  0
  9 10  1  0
 10 11  2  0
 11 12  1  0
 12 13  2  0
 13 14  1  0
 14 15  1  0
 15 16  1  0
 16 17  1  0
 17 18  1  0
 17 19  1  0
 19 20  2  0
 20 21  1  0
 20 22  1  0
 22 23  2  0
 23 24  1  0
 24 25  1  0
 24 26  2  0
 26 27  1  0
 13  4  1  0
 27 14  1  0
 12  7  1  0
 26 19  1  0
M  END
>  <AAScore>  (1) 
1.249460413164064

>  <RootName>  (1) 
./4ZLY/04_DeltaGEst/trajectory_03/rank_01/lead_0048

$$$$
