confid_19
     RDKit          3D

 27 29  0  0  0  0  0  0  0  0999 V2000
   24.6900   26.1200   35.5300 N   0  0  0  0  0  0  0  0  0  0  0  0
   25.6600   25.6700   34.6600 C   0  0  0  0  0  0  0  0  0  0  0  0
   25.2400   25.0100   33.7200 O   0  0  0  0  0  0  0  0  0  0  0  0
   27.0300   26.2200   34.8800 C   0  0  0  0  0  0  0  0  0  0  0  0
   27.3500   26.7300   36.0700 N   0  0  0  0  0  0  0  0  0  0  0  0
   28.5700   27.1800   36.3300 N   0  0  0  0  0  0  0  0  0  0  0  0
   29.5300   27.1100   35.3900 C   0  0  0  0  0  0  0  0  0  0  0  0
   30.8300   27.5700   35.6500 C   0  0  0  0  0  0  0  0  0  0  0  0
   31.8500   27.5400   34.6900 C   0  0  0  0  0  0  0  0  0  0  0  0
   31.5100   27.1200   33.4000 C   0  0  0  0  0  0  0  0  0  0  0  0
   30.2200   26.6300   33.1100 C   0  0  0  0  0  0  0  0  0  0  0  0
   29.2400   26.6600   34.1000 C   0  0  0  0  0  0  0  0  0  0  0  0
   27.9300   26.2600   33.8100 C   0  0  0  0  0  0  0  0  0  0  0  0
   27.5200   25.7100   32.6100 N   0  0  0  0  0  0  0  0  0  0  0  0
   31.1592   28.0374   36.9697 N   0  0  0  0  0  0  0  0  0  0  0  0
   31.5317   29.4433   37.1710 C   0  0  0  0  0  0  0  0  0  0  0  0
   30.4047   30.1872   37.9003 C   0  0  0  0  0  0  0  0  0  0  0  0
   30.4079   29.9925   39.4330 C   0  0  0  0  0  0  0  0  0  0  0  0
   31.0584   28.7398   39.8612 N   0  0  0  0  0  0  0  0  0  0  0  0
   31.1689   28.6712   41.6075 S   0  0  0  0  0  6  0  0  0  0  0  0
   31.7358   27.3426   42.0288 O   0  0  0  0  0  0  0  0  0  0  0  0
   32.1156   29.7466   42.0623 O   0  0  0  0  0  0  0  0  0  0  0  0
   29.6014   28.9352   42.4401 C   0  0  0  0  0  0  0  0  0  0  0  0
   28.5784   27.8468   42.1061 C   0  0  0  0  0  0  0  0  0  0  0  0
   27.3216   27.9957   42.9590 C   0  0  0  0  0  0  0  0  0  0  0  0
   30.4300   27.5352   39.2849 C   0  0  0  0  0  0  0  0  0  0  0  0
   31.2458   27.0742   38.0758 C   0  0  0  0  0  0  0  0  0  0  0  0
  1  2  1  0
  2  3  2  0
  2  4  1  0
  4  5  2  0
  5  6  1  0
  6  7  2  0
  7  8  1  0
  8  9  2  0
  9 10  1  0
 10 11  2  0
 11 12  1  0
 12 13  2  0
 13 14  1  0
  8 15  1  0
 15 16  1  0
 16 17  1  0
 17 18  1  0
 18 19  1  0
 19 20  1  0
 20 21  2  0
 20 22  2  0
 20 23  1  0
 23 24  1  0
 24 25  1  0
 19 26  1  0
 26 27  1  0
 13  4  1  0
 27 15  1  0
 12  7  1  0
M  END
>  <AAScore>  (1) 
-5.9641551185036406

>  <RootName>  (1) 
./4ZLY/04_DeltaGEst/trajectory_02/rank_01/lead_0428

$$$$
