confid_1
     RDKit          3D

 26 29  0  0  0  0  0  0  0  0999 V2000
   24.5500   26.3900   36.2500 N   0  0  0  0  0  0  0  0  0  0  0  0
   25.6000   26.1300   35.4000 C   0  0  0  0  0  0  0  0  0  0  0  0
   25.4300   25.4300   34.4200 O   0  0  0  0  0  0  0  0  0  0  0  0
   26.9800   26.6300   35.7100 C   0  0  0  0  0  0  0  0  0  0  0  0
   27.3200   26.8200   36.9800 N   0  0  0  0  0  0  0  0  0  0  0  0
   28.4700   27.4000   37.3100 N   0  0  0  0  0  0  0  0  0  0  0  0
   29.4000   27.6300   36.3700 C   0  0  0  0  0  0  0  0  0  0  0  0
   30.6600   28.0500   36.8000 C   0  0  0  0  0  0  0  0  0  0  0  0
   31.5700   28.3600   35.7800 C   0  0  0  0  0  0  0  0  0  0  0  0
   31.3700   28.1000   34.4300 C   0  0  0  0  0  0  0  0  0  0  0  0
   30.1200   27.5900   34.0500 C   0  0  0  0  0  0  0  0  0  0  0  0
   29.1500   27.3400   35.0300 C   0  0  0  0  0  0  0  0  0  0  0  0
   27.8800   26.8900   34.6600 C   0  0  0  0  0  0  0  0  0  0  0  0
   27.4800   26.6100   33.3700 N   0  0  0  0  0  0  0  0  0  0  0  0
   30.9650   28.2816   38.1859 N   0  0  0  0  0  0  0  0  0  0  0  0
   31.1629   27.1302   39.0745 C   0  0  0  0  0  0  0  0  0  0  0  0
   30.7278   27.4635   40.5061 C   0  0  0  0  0  0  0  0  0  0  0  0
   31.3677   28.7415   40.9905 C   0  0  0  0  0  0  0  0  0  0  0  0
   31.6321   28.9214   42.3573 C   0  0  0  0  0  0  0  0  0  0  0  0
   32.1587   30.1313   42.8207 C   0  0  0  0  0  0  0  0  0  0  0  0
   32.4084   31.1744   41.9243 C   0  0  0  0  0  0  0  0  0  0  0  0
   32.1318   31.0125   40.5643 C   0  0  0  0  0  0  0  0  0  0  0  0
   31.6083   29.7984   40.0892 C   0  0  0  0  0  0  0  0  0  0  0  0
   31.3107   29.5982   38.6560 C   0  0  0  0  0  0  0  0  0  0  0  0
   31.3356   30.5755   37.8581 O   0  0  0  0  0  0  0  0  0  0  0  0
   32.4953   30.3443   44.5290 Cl  0  0  0  0  0  0  0  0  0  0  0  0
  1  2  1  0
  2  3  2  0
  2  4  1  0
  4  5  2  0
  5  6  1  0
  6  7  2  0
  7  8  1  0
  8  9  2  0
  9 10  1  0
 10 11  2  0
 11 12  1  0
 12 13  2  0
 13 14  1  0
  8 15  1  0
 15 16  1  0
 16 17  1  0
 17 18  1  0
 18 19  2  0
 19 20  1  0
 20 21  2  0
 21 22  1  0
 22 23  2  0
 23 24  1  0
 24 25  2  0
 20 26  1  0
 13  4  1  0
 24 15  1  0
 12  7  1  0
 23 18  1  0
M  END
>  <AAScore>  (1) 
424.6312963141683

>  <RootName>  (1) 
./4ZLY/04_DeltaGEst/trajectory_01/rank_01/lead_0216

$$$$
