confid_10
     RDKit          3D

 27 30  0  0  0  0  0  0  0  0999 V2000
   24.2000   26.2400   35.6900 N   0  0  0  0  0  0  0  0  0  0  0  0
   24.8500   26.2800   34.4800 C   0  0  0  0  0  0  0  0  0  0  0  0
   24.3100   25.7400   33.5400 O   0  0  0  0  0  0  0  0  0  0  0  0
   26.1800   26.9700   34.4700 C   0  0  0  0  0  0  0  0  0  0  0  0
   26.6500   27.6000   35.5500 N   0  0  0  0  0  0  0  0  0  0  0  0
   27.7900   28.2700   35.6200 N   0  0  0  0  0  0  0  0  0  0  0  0
   28.5400   28.3000   34.5100 C   0  0  0  0  0  0  0  0  0  0  0  0
   29.7700   28.9400   34.5600 C   0  0  0  0  0  0  0  0  0  0  0  0
   30.7000   28.8900   33.5000 C   0  0  0  0  0  0  0  0  0  0  0  0
   30.3700   28.1400   32.3700 C   0  0  0  0  0  0  0  0  0  0  0  0
   29.1200   27.5200   32.2800 C   0  0  0  0  0  0  0  0  0  0  0  0
   28.2100   27.6100   33.3300 C   0  0  0  0  0  0  0  0  0  0  0  0
   26.9700   26.9700   33.3100 C   0  0  0  0  0  0  0  0  0  0  0  0
   26.5300   26.2400   32.2200 N   0  0  0  0  0  0  0  0  0  0  0  0
   22.7725   26.1564   35.8475 C   0  0  0  0  0  0  0  0  0  0  0  0
   22.2614   25.5992   36.9868 N   0  0  0  0  0  0  0  0  0  0  0  0
   20.9176   25.5411   37.1561 C   0  0  0  0  0  0  0  0  0  0  0  0
   20.1642   24.9668   38.3020 C   0  0  0  0  0  0  0  0  0  0  0  0
   18.6816   25.1785   37.8822 C   0  0  0  0  0  0  0  0  0  0  0  0
   18.7200   25.8761   36.5938 N   0  0  0  0  0  0  0  0  0  0  0  0
   17.5541   26.2338   35.7893 C   0  0  0  0  0  0  0  0  0  0  0  0
   17.3730   27.7550   35.7556 C   0  0  1  0  0  0  0  0  0  0  0  0
   16.1643   28.1442   34.9088 C   0  0  0  0  0  0  0  0  0  0  0  0
   17.1992   28.2314   37.0440 F   0  0  0  0  0  0  0  0  0  0  0  0
   20.0721   26.0380   36.2202 C   0  0  0  0  0  0  0  0  0  0  0  0
   20.5318   26.6138   35.0825 N   0  0  0  0  0  0  0  0  0  0  0  0
   21.8792   26.6878   34.8786 C   0  0  0  0  0  0  0  0  0  0  0  0
  1  2  1  0
  2  3  2  0
  2  4  1  0
  4  5  2  0
  5  6  1  0
  6  7  2  0
  7  8  1  0
  8  9  2  0
  9 10  1  0
 10 11  2  0
 11 12  1  0
 12 13  2  0
 13 14  1  0
  1 15  1  0
 15 16  2  0
 16 17  1  0
 17 18  1  0
 18 19  1  0
 19 20  1  0
 20 21  1  0
 21 22  1  0
 22 23  1  6
 22 24  1  0
 20 25  1  0
 25 26  1  0
 26 27  2  0
 13  4  1  0
 27 15  1  0
 12  7  1  0
 25 17  2  0
M  END
>  <AAScore>  (1) 
256.76241383972024

>  <RootName>  (1) 
./4ZLY/04_DeltaGEst/trajectory_04/rank_00/lead_0346

$$$$
