confid_9
     RDKit          3D

 25 26  0  0  0  0  0  0  0  0999 V2000
   24.5700   26.8800   35.5900 N   0  0  0  0  0  0  0  0  0  0  0  0
   25.5000   26.4000   34.6900 C   0  0  0  0  0  0  0  0  0  0  0  0
   25.1700   25.5200   33.9100 O   0  0  0  0  0  0  0  0  0  0  0  0
   26.8400   27.0200   34.7400 C   0  0  0  0  0  0  0  0  0  0  0  0
   27.3800   27.2800   35.9400 N   0  0  0  0  0  0  0  0  0  0  0  0
   28.6200   27.7400   36.0300 N   0  0  0  0  0  0  0  0  0  0  0  0
   29.3800   28.0000   34.9600 C   0  0  0  0  0  0  0  0  0  0  0  0
   30.6700   28.5000   35.1300 C   0  0  0  0  0  0  0  0  0  0  0  0
   31.5400   28.6100   34.0300 C   0  0  0  0  0  0  0  0  0  0  0  0
   31.0900   28.2200   32.7700 C   0  0  0  0  0  0  0  0  0  0  0  0
   29.8000   27.7000   32.6000 C   0  0  0  0  0  0  0  0  0  0  0  0
   28.9600   27.5500   33.7100 C   0  0  0  0  0  0  0  0  0  0  0  0
   27.6600   27.0300   33.5900 C   0  0  0  0  0  0  0  0  0  0  0  0
   27.1600   26.7400   32.3400 N   0  0  0  0  0  0  0  0  0  0  0  0
   33.1504   29.2889   34.2423 S   0  0  0  0  0  6  0  0  0  0  0  0
   33.7995   28.6608   35.4439 O   0  0  0  0  0  0  0  0  0  0  0  0
   33.9922   28.9919   33.0322 O   0  0  0  0  0  0  0  0  0  0  0  0
   33.0615   31.0564   34.4690 C   0  0  0  0  0  0  0  0  0  0  0  0
   32.0642   31.6323   33.5356 N   0  0  0  0  0  0  0  0  0  0  0  0
   30.7858   32.0463   34.1928 C   0  0  0  0  0  0  0  0  0  0  0  0
   30.7415   33.5165   34.6260 C   0  0  0  0  0  0  0  0  0  0  0  0
   29.5565   31.6687   33.3528 C   0  0  0  0  0  0  0  0  0  0  0  0
   32.6760   32.4218   32.4255 C   0  0  0  0  0  0  0  0  0  0  0  0
   31.7266   32.6293   31.2406 C   0  0  0  0  0  0  0  0  0  0  0  0
   33.3213   33.7540   32.8646 C   0  0  0  0  0  0  0  0  0  0  0  0
  1  2  1  0
  2  3  2  0
  2  4  1  0
  4  5  2  0
  5  6  1  0
  6  7  2  0
  7  8  1  0
  8  9  2  0
  9 10  1  0
 10 11  2  0
 11 12  1  0
 12 13  2  0
 13 14  1  0
  9 15  1  0
 15 16  2  0
 15 17  2  0
 15 18  1  0
 18 19  1  0
 19 20  1  0
 20 21  1  0
 20 22  1  0
 19 23  1  0
 23 24  1  0
 23 25  1  0
 13  4  1  0
 12  7  1  0
M  END
>  <AAScore>  (1) 
12.227913075711037

>  <RootName>  (1) 
./4ZLY/04_DeltaGEst/trajectory_05/rank_01/lead_0137

$$$$
