confid_12
     RDKit          3D

 28 31  0  0  0  0  0  0  0  0999 V2000
   24.2000   26.2400   35.6900 N   0  0  0  0  0  0  0  0  0  0  0  0
   24.8500   26.2800   34.4800 C   0  0  0  0  0  0  0  0  0  0  0  0
   24.3100   25.7400   33.5400 O   0  0  0  0  0  0  0  0  0  0  0  0
   26.1800   26.9700   34.4700 C   0  0  0  0  0  0  0  0  0  0  0  0
   26.6500   27.6000   35.5500 N   0  0  0  0  0  0  0  0  0  0  0  0
   27.7900   28.2700   35.6200 N   0  0  0  0  0  0  0  0  0  0  0  0
   28.5400   28.3000   34.5100 C   0  0  0  0  0  0  0  0  0  0  0  0
   29.7700   28.9400   34.5600 C   0  0  0  0  0  0  0  0  0  0  0  0
   30.7000   28.8900   33.5000 C   0  0  0  0  0  0  0  0  0  0  0  0
   30.3700   28.1400   32.3700 C   0  0  0  0  0  0  0  0  0  0  0  0
   29.1200   27.5200   32.2800 C   0  0  0  0  0  0  0  0  0  0  0  0
   28.2100   27.6100   33.3300 C   0  0  0  0  0  0  0  0  0  0  0  0
   26.9700   26.9700   33.3100 C   0  0  0  0  0  0  0  0  0  0  0  0
   26.5300   26.2400   32.2200 N   0  0  0  0  0  0  0  0  0  0  0  0
   30.1320   29.6860   35.7375 N   0  0  0  0  0  0  0  0  0  0  0  0
   29.4691   30.9650   36.0220 C   0  0  0  0  0  0  0  0  0  0  0  0
   30.1009   32.1121   35.2134 C   0  0  0  0  0  0  0  0  0  0  0  0
   31.5828   31.9723   34.9564 C   0  0  0  0  0  0  0  0  0  0  0  0
   32.3582   32.6782   33.6412 S   0  0  0  0  0  0  0  0  0  0  0  0
   33.8826   32.0452   33.9584 C   0  0  0  0  0  0  0  0  0  0  0  0
   35.1001   32.2322   33.0924 C   0  0  0  0  0  0  0  0  0  0  0  0
   35.2672   31.1783   32.0663 N   0  0  0  0  0  0  0  0  0  0  0  0
   34.1555   31.1456   31.1026 C   0  0  0  0  0  0  0  0  0  0  0  0
   35.4915   29.8477   32.6534 C   0  0  0  0  0  0  0  0  0  0  0  0
   33.8152   31.2765   35.1131 C   0  0  0  0  0  0  0  0  0  0  0  0
   32.5320   31.2341   35.6800 C   0  0  0  0  0  0  0  0  0  0  0  0
   32.2158   30.4120   36.8986 C   0  0  0  0  0  0  0  0  0  0  0  0
   31.2670   29.2489   36.5648 C   0  0  0  0  0  0  0  0  0  0  0  0
  1  2  1  0
  2  3  2  0
  2  4  1  0
  4  5  2  0
  5  6  1  0
  6  7  2  0
  7  8  1  0
  8  9  2  0
  9 10  1  0
 10 11  2  0
 11 12  1  0
 12 13  2  0
 13 14  1  0
  8 15  1  0
 15 16  1  0
 16 17  1  0
 17 18  1  0
 18 19  1  0
 19 20  1  0
 20 21  1  0
 21 22  1  0
 22 23  1  0
 22 24  1  0
 20 25  2  0
 25 26  1  0
 26 27  1  0
 27 28  1  0
 13  4  1  0
 28 15  1  0
 12  7  1  0
 26 18  2  0
M  END
>  <AAScore>  (1) 
-8.28353821082043

>  <RootName>  (1) 
./4ZLY/04_DeltaGEst/trajectory_04/rank_01/lead_0023

$$$$
