confid_14
     RDKit          3D

 27 30  0  0  0  0  0  0  0  0999 V2000
   25.3300   26.2600   34.7600 N   0  0  0  0  0  0  0  0  0  0  0  0
   26.1200   25.9200   33.6900 C   0  0  0  0  0  0  0  0  0  0  0  0
   25.6300   25.1100   32.9400 O   0  0  0  0  0  0  0  0  0  0  0  0
   27.5200   26.3800   33.4600 C   0  0  0  0  0  0  0  0  0  0  0  0
   28.1600   26.6300   34.6100 N   0  0  0  0  0  0  0  0  0  0  0  0
   29.4800   26.8500   34.5700 N   0  0  0  0  0  0  0  0  0  0  0  0
   30.1900   26.7800   33.4400 C   0  0  0  0  0  0  0  0  0  0  0  0
   31.5600   27.0500   33.5000 C   0  0  0  0  0  0  0  0  0  0  0  0
   32.2700   27.2400   32.3100 C   0  0  0  0  0  0  0  0  0  0  0  0
   31.6100   27.2500   31.0800 C   0  0  0  0  0  0  0  0  0  0  0  0
   30.2700   26.8700   31.0600 C   0  0  0  0  0  0  0  0  0  0  0  0
   29.5100   26.6900   32.2300 C   0  0  0  0  0  0  0  0  0  0  0  0
   28.1400   26.4100   32.2000 C   0  0  0  0  0  0  0  0  0  0  0  0
   27.4300   26.1300   31.0500 N   0  0  0  0  0  0  0  0  0  0  0  0
   26.5222   27.1365   30.4916 C   0  0  0  0  0  0  0  0  0  0  0  0
   26.6321   27.1436   28.9650 C   0  0  0  0  0  0  0  0  0  0  0  0
   26.5140   25.7860   28.4042 N   0  0  0  0  0  0  0  0  0  0  0  0
   26.1297   25.6003   27.0245 C   0  0  0  0  0  0  0  0  0  0  0  0
   25.4601   24.5816   26.6997 O   0  0  0  0  0  0  0  0  0  0  0  0
   26.5036   26.5627   25.9669 C   0  0  0  0  0  0  0  0  0  0  0  0
   26.0316   26.5521   24.6699 C   0  0  0  0  0  0  0  0  0  0  0  0
   26.6305   27.5566   24.0117 N   0  0  0  0  0  0  0  0  0  0  0  0
   26.3731   27.9799   22.6415 C   0  0  0  0  0  0  0  0  0  0  0  0
   27.4308   28.1637   24.9082 C   0  0  0  0  0  0  0  0  0  0  0  0
   27.3882   27.5714   26.1200 N   0  0  0  0  0  0  0  0  0  0  0  0
   26.5396   24.6172   29.2977 C   0  0  0  0  0  0  0  0  0  0  0  0
   27.5658   24.8097   30.4198 C   0  0  0  0  0  0  0  0  0  0  0  0
  1  2  1  0
  2  3  2  0
  2  4  1  0
  4  5  2  0
  5  6  1  0
  6  7  2  0
  7  8  1  0
  8  9  2  0
  9 10  1  0
 10 11  2  0
 11 12  1  0
 12 13  2  0
 13 14  1  0
 14 15  1  0
 15 16  1  0
 16 17  1  0
 17 18  1  0
 18 19  2  0
 18 20  1  0
 20 21  2  0
 21 22  1  0
 22 23  1  0
 22 24  1  0
 24 25  2  0
 17 26  1  0
 26 27  1  0
 13  4  1  0
 27 14  1  0
 12  7  1  0
 25 20  1  0
M  END
>  <AAScore>  (1) 
28.009926660159312

>  <RootName>  (1) 
./4ZLY/04_DeltaGEst/trajectory_03/rank_01/lead_0476

$$$$
