confid_6
     RDKit          3D

 29 33  0  0  0  0  0  0  0  0999 V2000
   24.6900   26.1200   35.5300 N   0  0  0  0  0  0  0  0  0  0  0  0
   25.6600   25.6700   34.6600 C   0  0  0  0  0  0  0  0  0  0  0  0
   25.2400   25.0100   33.7200 O   0  0  0  0  0  0  0  0  0  0  0  0
   27.0300   26.2200   34.8800 C   0  0  0  0  0  0  0  0  0  0  0  0
   27.3500   26.7300   36.0700 N   0  0  0  0  0  0  0  0  0  0  0  0
   28.5700   27.1800   36.3300 N   0  0  0  0  0  0  0  0  0  0  0  0
   29.5300   27.1100   35.3900 C   0  0  0  0  0  0  0  0  0  0  0  0
   30.8300   27.5700   35.6500 C   0  0  0  0  0  0  0  0  0  0  0  0
   31.8500   27.5400   34.6900 C   0  0  0  0  0  0  0  0  0  0  0  0
   31.5100   27.1200   33.4000 C   0  0  0  0  0  0  0  0  0  0  0  0
   30.2200   26.6300   33.1100 C   0  0  0  0  0  0  0  0  0  0  0  0
   29.2400   26.6600   34.1000 C   0  0  0  0  0  0  0  0  0  0  0  0
   27.9300   26.2600   33.8100 C   0  0  0  0  0  0  0  0  0  0  0  0
   27.5200   25.7100   32.6100 N   0  0  0  0  0  0  0  0  0  0  0  0
   31.1476   28.0561   36.9658 N   0  0  0  0  0  0  0  0  0  0  0  0
   31.1909   27.1143   38.1007 C   0  0  0  0  0  0  0  0  0  0  0  0
   30.4963   27.7138   39.3365 C   0  0  0  0  0  0  0  0  0  0  0  0
   30.9075   29.1437   39.5067 C   0  0  0  0  0  0  0  0  0  0  0  0
   31.3956   29.9274   38.4912 C   0  0  0  0  0  0  0  0  0  0  0  0
   31.5292   31.2006   38.9065 N   0  0  0  0  0  0  0  0  0  0  0  0
   31.1174   31.2440   40.1675 N   0  0  0  0  0  0  0  0  0  0  0  0
   31.0443   32.4864   40.9372 C   0  0  0  0  0  0  0  0  0  0  0  0
   29.5923   32.9992   41.0791 C   0  0  0  0  0  0  0  0  0  0  0  0
   29.0428   33.2329   42.4906 C   0  0  0  0  0  0  0  0  0  0  0  0
   29.1886   34.0648   40.0611 C   0  0  0  0  0  0  0  0  0  0  0  0
   28.5723   32.6764   39.9864 C   0  0  0  0  0  0  0  0  0  0  0  0
   30.7266   30.0089   40.5671 C   0  0  0  0  0  0  0  0  0  0  0  0
   30.0668   29.6861   41.8731 C   0  0  0  0  0  0  0  0  0  0  0  0
   31.7060   29.4102   37.1237 C   0  0  0  0  0  0  0  0  0  0  0  0
  1  2  1  0
  2  3  2  0
  2  4  1  0
  4  5  2  0
  5  6  1  0
  6  7  2  0
  7  8  1  0
  8  9  2  0
  9 10  1  0
 10 11  2  0
 11 12  1  0
 12 13  2  0
 13 14  1  0
  8 15  1  0
 15 16  1  0
 16 17  1  0
 17 18  1  0
 18 19  1  0
 19 20  2  0
 20 21  1  0
 21 22  1  0
 22 23  1  0
 23 24  1  0
 23 25  1  0
 25 26  1  0
 21 27  1  0
 27 28  1  0
 19 29  1  0
 13  4  1  0
 29 15  1  0
 12  7  1  0
 27 18  2  0
 26 23  1  0
M  END
>  <AAScore>  (1) 
-0.9552673491343804

>  <RootName>  (1) 
./4ZLY/04_DeltaGEst/trajectory_02/rank_01/lead_0494

$$$$
