confid_18
     RDKit          3D

 28 31  0  0  0  0  0  0  0  0999 V2000
   24.5500   26.3900   36.2500 N   0  0  0  0  0  0  0  0  0  0  0  0
   25.6000   26.1300   35.4000 C   0  0  0  0  0  0  0  0  0  0  0  0
   25.4300   25.4300   34.4200 O   0  0  0  0  0  0  0  0  0  0  0  0
   26.9800   26.6300   35.7100 C   0  0  0  0  0  0  0  0  0  0  0  0
   27.3200   26.8200   36.9800 N   0  0  0  0  0  0  0  0  0  0  0  0
   28.4700   27.4000   37.3100 N   0  0  0  0  0  0  0  0  0  0  0  0
   29.4000   27.6300   36.3700 C   0  0  0  0  0  0  0  0  0  0  0  0
   30.6600   28.0500   36.8000 C   0  0  0  0  0  0  0  0  0  0  0  0
   31.5700   28.3600   35.7800 C   0  0  0  0  0  0  0  0  0  0  0  0
   31.3700   28.1000   34.4300 C   0  0  0  0  0  0  0  0  0  0  0  0
   30.1200   27.5900   34.0500 C   0  0  0  0  0  0  0  0  0  0  0  0
   29.1500   27.3400   35.0300 C   0  0  0  0  0  0  0  0  0  0  0  0
   27.8800   26.8900   34.6600 C   0  0  0  0  0  0  0  0  0  0  0  0
   27.4800   26.6100   33.3700 N   0  0  0  0  0  0  0  0  0  0  0  0
   31.0082   28.2755   38.2250 C   0  0  0  0  0  0  0  0  0  0  0  0
   30.7891   27.2385   39.1757 C   0  0  0  0  0  0  0  0  0  0  0  0
   31.1697   27.5254   40.4699 C   0  0  0  0  0  0  0  0  0  0  0  0
   31.2964   27.1345   41.8397 C   0  0  1  0  0  0  0  0  0  0  0  0
   32.2812   25.9746   42.0599 C   0  0  0  0  0  0  0  0  0  0  0  0
   31.7882   24.7400   41.4275 N   0  0  0  0  0  0  0  0  0  0  0  0
   32.3182   24.2460   40.1753 C   0  0  0  0  0  0  0  0  0  0  0  0
   31.7622   23.2679   39.6047 O   0  0  0  0  0  0  0  0  0  0  0  0
   33.5313   24.8478   39.5295 C   0  0  0  0  0  0  0  0  0  0  0  0
   30.6670   24.0278   42.0486 C   0  0  0  0  0  0  0  0  0  0  0  0
   31.8514   28.3479   42.2267 O   0  0  0  0  0  0  0  0  0  0  0  0
   31.7271   28.7460   40.8548 C   0  0  0  0  0  0  0  0  0  0  0  0
   31.9584   29.7820   39.9740 C   0  0  0  0  0  0  0  0  0  0  0  0
   31.5907   29.5279   38.6290 C   0  0  0  0  0  0  0  0  0  0  0  0
  1  2  1  0
  2  3  2  0
  2  4  1  0
  4  5  2  0
  5  6  1  0
  6  7  2  0
  7  8  1  0
  8  9  2  0
  9 10  1  0
 10 11  2  0
 11 12  1  0
 12 13  2  0
 13 14  1  0
  8 15  1  0
 15 16  2  0
 16 17  1  0
 17 18  1  0
 18 19  1  6
 19 20  1  0
 20 21  1  0
 21 22  2  0
 21 23  1  0
 20 24  1  0
 18 25  1  0
 25 26  1  0
 26 27  1  0
 27 28  2  0
 13  4  1  0
 28 15  1  0
 12  7  1  0
 26 17  2  0
M  END
>  <AAScore>  (1) 
63.24049394036263

>  <RootName>  (1) 
./4ZLY/04_DeltaGEst/trajectory_01/rank_01/lead_0020

$$$$
