confid_11
     RDKit          3D

 29 33  0  0  0  0  0  0  0  0999 V2000
   24.5700   26.8800   35.5900 N   0  0  0  0  0  0  0  0  0  0  0  0
   25.5000   26.4000   34.6900 C   0  0  0  0  0  0  0  0  0  0  0  0
   25.1700   25.5200   33.9100 O   0  0  0  0  0  0  0  0  0  0  0  0
   26.8400   27.0200   34.7400 C   0  0  0  0  0  0  0  0  0  0  0  0
   27.3800   27.2800   35.9400 N   0  0  0  0  0  0  0  0  0  0  0  0
   28.6200   27.7400   36.0300 N   0  0  0  0  0  0  0  0  0  0  0  0
   29.3800   28.0000   34.9600 C   0  0  0  0  0  0  0  0  0  0  0  0
   30.6700   28.5000   35.1300 C   0  0  0  0  0  0  0  0  0  0  0  0
   31.5400   28.6100   34.0300 C   0  0  0  0  0  0  0  0  0  0  0  0
   31.0900   28.2200   32.7700 C   0  0  0  0  0  0  0  0  0  0  0  0
   29.8000   27.7000   32.6000 C   0  0  0  0  0  0  0  0  0  0  0  0
   28.9600   27.5500   33.7100 C   0  0  0  0  0  0  0  0  0  0  0  0
   27.6600   27.0300   33.5900 C   0  0  0  0  0  0  0  0  0  0  0  0
   27.1600   26.7400   32.3400 N   0  0  0  0  0  0  0  0  0  0  0  0
   23.6517   26.0081   36.2683 C   0  0  0  0  0  0  0  0  0  0  0  0
   24.1242   24.8696   36.7151 N   0  0  0  0  0  0  0  0  0  0  0  0
   23.4541   23.8664   37.4812 C   0  0  0  0  0  0  0  0  0  0  0  0
   22.9563   24.1414   38.6904 C   0  0  0  0  0  0  0  0  0  0  0  0
   22.8512   25.5594   39.1334 C   0  0  0  0  0  0  0  0  0  0  0  0
   21.5175   25.8742   38.6682 N   0  0  0  0  0  0  0  0  0  0  0  0
   20.7899   24.6694   38.9460 C   0  0  0  0  0  0  0  0  0  0  0  0
   19.5305   24.6068   38.9544 O   0  0  0  0  0  0  0  0  0  0  0  0
   21.6769   23.4865   39.1038 C   0  0  0  0  0  0  0  0  0  0  0  0
   21.2829   26.4815   37.3791 C   0  0  0  0  0  0  0  0  0  0  0  0
   20.0049   27.0398   37.1820 C   0  0  0  0  0  0  0  0  0  0  0  0
   19.5901   27.4740   35.9287 C   0  0  0  0  0  0  0  0  0  0  0  0
   20.4476   27.3742   34.8427 C   0  0  0  0  0  0  0  0  0  0  0  0
   21.7320   26.8620   35.0071 C   0  0  0  0  0  0  0  0  0  0  0  0
   22.1952   26.4085   36.2609 C   0  0  0  0  0  0  0  0  0  0  0  0
  1  2  1  0
  2  3  2  0
  2  4  1  0
  4  5  2  0
  5  6  1  0
  6  7  2  0
  7  8  1  0
  8  9  2  0
  9 10  1  0
 10 11  2  0
 11 12  1  0
 12 13  2  0
 13 14  1  0
  1 15  1  0
 15 16  2  0
 16 17  1  0
 17 18  2  0
 18 19  1  0
 19 20  1  0
 20 21  1  0
 21 22  2  0
 21 23  1  0
 20 24  1  0
 24 25  2  0
 25 26  1  0
 26 27  2  0
 27 28  1  0
 28 29  2  0
 13  4  1  0
 29 15  1  0
 12  7  1  0
 23 18  1  0
 29 24  1  0
M  END
>  <AAScore>  (1) 
12099.352602549254

>  <RootName>  (1) 
./4ZLY/04_DeltaGEst/trajectory_05/rank_00/lead_0467

$$$$
