confid_3
     RDKit          3D

 28 32  0  0  0  0  0  0  0  0999 V2000
   24.2000   26.2400   35.6900 N   0  0  0  0  0  0  0  0  0  0  0  0
   24.8500   26.2800   34.4800 C   0  0  0  0  0  0  0  0  0  0  0  0
   24.3100   25.7400   33.5400 O   0  0  0  0  0  0  0  0  0  0  0  0
   26.1800   26.9700   34.4700 C   0  0  0  0  0  0  0  0  0  0  0  0
   26.6500   27.6000   35.5500 N   0  0  0  0  0  0  0  0  0  0  0  0
   27.7900   28.2700   35.6200 N   0  0  0  0  0  0  0  0  0  0  0  0
   28.5400   28.3000   34.5100 C   0  0  0  0  0  0  0  0  0  0  0  0
   29.7700   28.9400   34.5600 C   0  0  0  0  0  0  0  0  0  0  0  0
   30.7000   28.8900   33.5000 C   0  0  0  0  0  0  0  0  0  0  0  0
   30.3700   28.1400   32.3700 C   0  0  0  0  0  0  0  0  0  0  0  0
   29.1200   27.5200   32.2800 C   0  0  0  0  0  0  0  0  0  0  0  0
   28.2100   27.6100   33.3300 C   0  0  0  0  0  0  0  0  0  0  0  0
   26.9700   26.9700   33.3100 C   0  0  0  0  0  0  0  0  0  0  0  0
   26.5300   26.2400   32.2200 N   0  0  0  0  0  0  0  0  0  0  0  0
   22.7882   25.9988   35.8454 C   0  0  0  0  0  0  0  0  0  0  0  0
   21.9496   25.7090   34.8285 N   0  0  0  0  0  0  0  0  0  0  0  0
   20.7595   25.5110   35.4351 C   0  0  0  0  0  0  0  0  0  0  0  0
   19.5110   25.1570   34.6880 C   0  0  0  0  0  0  0  0  0  0  0  0
   18.3842   26.1549   34.9828 C   0  0  0  0  0  0  0  0  0  0  0  0
   17.7368   25.8727   36.2852 N   0  0  0  0  0  0  0  0  0  0  0  0
   16.4065   26.5048   36.3213 C   0  0  0  0  0  0  0  0  0  0  0  0
   18.5456   26.3581   37.4271 C   0  0  0  0  0  0  0  0  0  0  0  0
   19.7199   25.4173   37.7147 C   0  0  0  0  0  0  0  0  0  0  0  0
   20.8172   25.6577   36.7757 N   0  0  0  0  0  0  0  0  0  0  0  0
   22.0960   25.9956   37.0443 C   0  0  0  0  0  0  0  0  0  0  0  0
   22.6648   26.2457   38.4164 C   0  0  0  0  0  0  0  0  0  0  0  0
   22.0078   27.3891   39.1803 C   0  0  0  0  0  0  0  0  0  0  0  0
   23.3874   27.5774   38.5840 C   0  0  0  0  0  0  0  0  0  0  0  0
  1  2  1  0
  2  3  2  0
  2  4  1  0
  4  5  2  0
  5  6  1  0
  6  7  2  0
  7  8  1  0
  8  9  2  0
  9 10  1  0
 10 11  2  0
 11 12  1  0
 12 13  2  0
 13 14  1  0
  1 15  1  0
 15 16  1  0
 16 17  2  0
 17 18  1  0
 18 19  1  0
 19 20  1  0
 20 21  1  0
 20 22  1  0
 22 23  1  0
 23 24  1  0
 24 25  1  0
 25 26  1  0
 26 27  1  0
 27 28  1  0
 13  4  1  0
 25 15  2  0
 28 26  1  0
 12  7  1  0
 24 17  1  0
M  END
>  <AAScore>  (1) 
1239.1640839864483

>  <RootName>  (1) 
./4ZLY/04_DeltaGEst/trajectory_04/rank_00/lead_0340

$$$$
