confid_13
     RDKit          3D

 32 35  0  0  0  0  0  0  0  0999 V2000
   24.4800   26.1000   36.1300 N   0  0  0  0  0  0  0  0  0  0  0  0
   25.2500   26.2500   34.9900 C   0  0  0  0  0  0  0  0  0  0  0  0
   24.7400   25.7600   33.9900 O   0  0  0  0  0  0  0  0  0  0  0  0
   26.5900   26.8900   34.9600 C   0  0  0  0  0  0  0  0  0  0  0  0
   27.0600   27.2400   36.1600 N   0  0  0  0  0  0  0  0  0  0  0  0
   28.3000   27.7100   36.2400 N   0  0  0  0  0  0  0  0  0  0  0  0
   29.0500   27.9600   35.1500 C   0  0  0  0  0  0  0  0  0  0  0  0
   30.3400   28.4900   35.2600 C   0  0  0  0  0  0  0  0  0  0  0  0
   31.1100   28.8200   34.1400 C   0  0  0  0  0  0  0  0  0  0  0  0
   30.5200   28.6700   32.8800 C   0  0  0  0  0  0  0  0  0  0  0  0
   29.2900   28.0200   32.7700 C   0  0  0  0  0  0  0  0  0  0  0  0
   28.5200   27.7100   33.8900 C   0  0  0  0  0  0  0  0  0  0  0  0
   27.2700   27.0800   33.7600 C   0  0  0  0  0  0  0  0  0  0  0  0
   26.7500   26.8800   32.4900 N   0  0  0  0  0  0  0  0  0  0  0  0
   23.0659   25.8250   36.1493 C   0  0  0  0  0  0  0  0  0  0  0  0
   22.6530   24.9094   36.9842 N   0  0  0  0  0  0  0  0  0  0  0  0
   21.3098   24.4939   37.2525 C   0  0  0  0  0  0  0  0  0  0  0  0
   20.8497   23.2863   36.9055 C   0  0  0  0  0  0  0  0  0  0  0  0
   19.5177   22.7747   37.3765 C   0  0  0  0  0  0  0  0  0  0  0  0
   19.4763   21.4037   36.9002 N   0  0  0  0  0  0  0  0  0  0  0  0
   20.6485   21.1146   36.1541 C   0  0  0  0  0  0  0  0  0  0  0  0
   20.8800   19.9835   35.6483 O   0  0  0  0  0  0  0  0  0  0  0  0
   21.5618   22.2830   36.0340 C   0  0  1  0  0  0  0  0  0  0  0  0
   21.7089   22.7303   34.5602 C   0  0  0  0  0  0  0  0  0  0  0  0
   20.4107   23.2144   33.8790 C   0  0  0  0  0  0  0  0  0  0  0  0
   19.9503   24.4015   34.4961 O   0  0  0  0  0  0  0  0  0  0  0  0
   19.3006   25.2410   33.5652 C   0  0  0  0  0  0  0  0  0  0  0  0
   18.8274   26.5222   34.2650 C   0  0  0  0  0  0  0  0  0  0  0  0
   19.9385   27.5738   34.4932 C   0  0  0  0  0  0  0  0  0  0  0  0
   20.9216   27.2180   35.6308 C   0  0  0  0  0  0  0  0  0  0  0  0
   22.1675   26.4819   35.1038 C   0  0  0  0  0  0  0  0  0  0  0  0
   18.3678   20.4799   37.1047 C   0  0  0  0  0  0  0  0  0  0  0  0
  1  2  1  0
  2  3  2  0
  2  4  1  0
  4  5  2  0
  5  6  1  0
  6  7  2  0
  7  8  1  0
  8  9  2  0
  9 10  1  0
 10 11  2  0
 11 12  1  0
 12 13  2  0
 13 14  1  0
  1 15  1  0
 15 16  2  0
 16 17  1  0
 17 18  2  0
 18 19  1  0
 19 20  1  0
 20 21  1  0
 21 22  2  0
 21 23  1  0
 23 24  1  6
 24 25  1  0
 25 26  1  0
 26 27  1  0
 27 28  1  0
 28 29  1  0
 29 30  1  0
 30 31  1  0
 20 32  1  0
 13  4  1  0
 31 15  1  0
 12  7  1  0
 23 18  1  0
M  END
>  <AAScore>  (1) 
1245.587582857385

>  <RootName>  (1) 
./4ZLY/04_DeltaGEst/trajectory_00/rank_00/lead_0061

$$$$
