confid_5
     RDKit          3D

 27 30  0  0  0  0  0  0  0  0999 V2000
   24.4800   26.1000   36.1300 N   0  0  0  0  0  0  0  0  0  0  0  0
   25.2500   26.2500   34.9900 C   0  0  0  0  0  0  0  0  0  0  0  0
   24.7400   25.7600   33.9900 O   0  0  0  0  0  0  0  0  0  0  0  0
   26.5900   26.8900   34.9600 C   0  0  0  0  0  0  0  0  0  0  0  0
   27.0600   27.2400   36.1600 N   0  0  0  0  0  0  0  0  0  0  0  0
   28.3000   27.7100   36.2400 N   0  0  0  0  0  0  0  0  0  0  0  0
   29.0500   27.9600   35.1500 C   0  0  0  0  0  0  0  0  0  0  0  0
   30.3400   28.4900   35.2600 C   0  0  0  0  0  0  0  0  0  0  0  0
   31.1100   28.8200   34.1400 C   0  0  0  0  0  0  0  0  0  0  0  0
   30.5200   28.6700   32.8800 C   0  0  0  0  0  0  0  0  0  0  0  0
   29.2900   28.0200   32.7700 C   0  0  0  0  0  0  0  0  0  0  0  0
   28.5200   27.7100   33.8900 C   0  0  0  0  0  0  0  0  0  0  0  0
   27.2700   27.0800   33.7600 C   0  0  0  0  0  0  0  0  0  0  0  0
   26.7500   26.8800   32.4900 N   0  0  0  0  0  0  0  0  0  0  0  0
   23.4867   25.0758   36.3377 C   0  0  0  0  0  0  0  0  0  0  0  0
   23.3968   24.0088   35.4956 N   0  0  0  0  0  0  0  0  0  0  0  0
   22.4803   23.0188   35.6695 C   0  0  0  0  0  0  0  0  0  0  0  0
   22.4720   21.8477   34.7283 C   0  0  0  0  0  0  0  0  0  0  0  0
   21.1296   21.2839   34.6066 N   0  0  0  0  0  0  0  0  0  0  0  0
   20.2368   21.2597   35.7266 C   0  0  0  0  0  0  0  0  0  0  0  0
   19.1453   20.6358   35.6468 O   0  0  0  0  0  0  0  0  0  0  0  0
   20.6109   21.9464   37.0080 C   0  0  0  0  0  0  0  0  0  0  0  0
   21.5946   23.0655   36.7641 C   0  0  0  0  0  0  0  0  0  0  0  0
   21.6913   24.1402   37.6612 C   0  0  0  0  0  0  0  0  0  0  0  0
   20.8806   24.2103   38.7475 F   0  0  0  0  0  0  0  0  0  0  0  0
   22.6327   25.1482   37.4454 C   0  0  0  0  0  0  0  0  0  0  0  0
   20.7805   20.6561   33.4618 F   0  0  0  0  0  0  0  0  0  0  0  0
  1  2  1  0
  2  3  2  0
  2  4  1  0
  4  5  2  0
  5  6  1  0
  6  7  2  0
  7  8  1  0
  8  9  2  0
  9 10  1  0
 10 11  2  0
 11 12  1  0
 12 13  2  0
 13 14  1  0
  1 15  1  0
 15 16  2  0
 16 17  1  0
 17 18  1  0
 18 19  1  0
 19 20  1  0
 20 21  2  0
 20 22  1  0
 22 23  1  0
 23 24  1  0
 24 25  1  0
 24 26  2  0
 19 27  1  0
 13  4  1  0
 26 15  1  0
 12  7  1  0
 23 17  2  0
M  END
>  <AAScore>  (1) 
306.2587009318092

>  <RootName>  (1) 
./4ZLY/04_DeltaGEst/trajectory_00/rank_01/lead_0067

$$$$
