confid_10
     RDKit          3D

 27 29  0  0  0  0  0  0  0  0999 V2000
   24.5700   26.8800   35.5900 N   0  0  0  0  0  0  0  0  0  0  0  0
   25.5000   26.4000   34.6900 C   0  0  0  0  0  0  0  0  0  0  0  0
   25.1700   25.5200   33.9100 O   0  0  0  0  0  0  0  0  0  0  0  0
   26.8400   27.0200   34.7400 C   0  0  0  0  0  0  0  0  0  0  0  0
   27.3800   27.2800   35.9400 N   0  0  0  0  0  0  0  0  0  0  0  0
   28.6200   27.7400   36.0300 N   0  0  0  0  0  0  0  0  0  0  0  0
   29.3800   28.0000   34.9600 C   0  0  0  0  0  0  0  0  0  0  0  0
   30.6700   28.5000   35.1300 C   0  0  0  0  0  0  0  0  0  0  0  0
   31.5400   28.6100   34.0300 C   0  0  0  0  0  0  0  0  0  0  0  0
   31.0900   28.2200   32.7700 C   0  0  0  0  0  0  0  0  0  0  0  0
   29.8000   27.7000   32.6000 C   0  0  0  0  0  0  0  0  0  0  0  0
   28.9600   27.5500   33.7100 C   0  0  0  0  0  0  0  0  0  0  0  0
   27.6600   27.0300   33.5900 C   0  0  0  0  0  0  0  0  0  0  0  0
   27.1600   26.7400   32.3400 N   0  0  0  0  0  0  0  0  0  0  0  0
   33.1530   29.2830   34.2400 S   0  0  0  0  0  6  0  0  0  0  0  0
   34.0471   28.8171   33.1241 O   0  0  0  0  0  0  0  0  0  0  0  0
   33.7240   28.8038   35.5451 O   0  0  0  0  0  0  0  0  0  0  0  0
   33.0421   31.0744   34.2420 C   0  0  2  0  0  0  0  0  0  0  0  0
   32.4007   31.6070   32.9710 C   0  0  0  0  0  0  0  0  0  0  0  0
   32.9237   32.9678   32.7725 N   0  0  0  0  0  0  0  0  0  0  0  0
   34.1818   33.0674   33.5360 C   0  0  0  0  0  3  0  0  0  0  0  0
   34.4045   31.7548   34.2718 C   0  0  1  0  0  0  0  0  0  0  0  0
   34.9113   32.0110   35.6924 C   0  0  0  0  0  0  0  0  0  0  0  0
   32.9523   33.4687   31.3629 C   0  0  0  0  0  0  0  0  0  0  0  0
   33.3249   34.9692   31.3651 C   0  0  0  0  0  0  0  0  0  0  0  0
   33.9531   32.7022   30.4569 C   0  0  0  0  0  0  0  0  0  0  0  0
   31.5390   33.3535   30.7450 C   0  0  0  0  0  0  0  0  0  0  0  0
  1  2  1  0
  2  3  2  0
  2  4  1  0
  4  5  2  0
  5  6  1  0
  6  7  2  0
  7  8  1  0
  8  9  2  0
  9 10  1  0
 10 11  2  0
 11 12  1  0
 12 13  2  0
 13 14  1  0
  9 15  1  0
 15 16  2  0
 15 17  2  0
 18 15  1  6
 18 19  1  0
 19 20  1  0
 20 21  1  0
 21 22  1  0
 22 23  1  1
 20 24  1  0
 24 25  1  0
 24 26  1  0
 24 27  1  0
 13  4  1  0
 22 18  1  0
 12  7  1  0
M  RAD  1  21   2
M  END
>  <AAScore>  (1) 
67.76386195778029

>  <RootName>  (1) 
./4ZLY/04_DeltaGEst/trajectory_05/rank_01/lead_0420

$$$$
