confid_5
     RDKit          3D

 28 31  0  0  0  0  0  0  0  0999 V2000
   24.5500   26.3900   36.2500 N   0  0  0  0  0  0  0  0  0  0  0  0
   25.6000   26.1300   35.4000 C   0  0  0  0  0  0  0  0  0  0  0  0
   25.4300   25.4300   34.4200 O   0  0  0  0  0  0  0  0  0  0  0  0
   26.9800   26.6300   35.7100 C   0  0  0  0  0  0  0  0  0  0  0  0
   27.3200   26.8200   36.9800 N   0  0  0  0  0  0  0  0  0  0  0  0
   28.4700   27.4000   37.3100 N   0  0  0  0  0  0  0  0  0  0  0  0
   29.4000   27.6300   36.3700 C   0  0  0  0  0  0  0  0  0  0  0  0
   30.6600   28.0500   36.8000 C   0  0  0  0  0  0  0  0  0  0  0  0
   31.5700   28.3600   35.7800 C   0  0  0  0  0  0  0  0  0  0  0  0
   31.3700   28.1000   34.4300 C   0  0  0  0  0  0  0  0  0  0  0  0
   30.1200   27.5900   34.0500 C   0  0  0  0  0  0  0  0  0  0  0  0
   29.1500   27.3400   35.0300 C   0  0  0  0  0  0  0  0  0  0  0  0
   27.8800   26.8900   34.6600 C   0  0  0  0  0  0  0  0  0  0  0  0
   27.4800   26.6100   33.3700 N   0  0  0  0  0  0  0  0  0  0  0  0
   23.1633   26.2065   35.9154 C   0  0  0  0  0  0  0  0  0  0  0  0
   22.2862   25.8876   36.9023 N   0  0  0  0  0  0  0  0  0  0  0  0
   20.9589   25.7263   36.6691 C   0  0  0  0  0  0  0  0  0  0  0  0
   20.4362   25.8886   35.3766 C   0  0  0  0  0  0  0  0  0  0  0  0
   18.9469   25.7704   35.1661 C   0  0  0  0  0  0  0  0  0  0  0  0
   18.4286   27.0661   34.9378 O   0  0  0  0  0  0  0  0  0  0  0  0
   17.3925   27.0783   33.9740 C   0  0  1  0  0  0  0  0  0  0  0  0
   16.6788   28.4280   34.0572 C   0  0  0  0  0  0  0  0  0  0  0  0
   17.8935   26.8252   32.5223 C   0  0  0  0  0  0  0  0  0  0  0  0
   18.8614   27.7373   32.0149 O   0  0  0  0  0  0  0  0  0  0  0  0
   20.0734   27.8054   32.7538 C   0  0  0  0  0  0  0  0  0  0  0  0
   20.8403   26.4651   32.9041 C   0  0  0  0  0  0  0  0  0  0  0  0
   21.3206   26.2446   34.3255 C   0  0  0  0  0  0  0  0  0  0  0  0
   22.6848   26.4155   34.6124 C   0  0  0  0  0  0  0  0  0  0  0  0
  1  2  1  0
  2  3  2  0
  2  4  1  0
  4  5  2  0
  5  6  1  0
  6  7  2  0
  7  8  1  0
  8  9  2  0
  9 10  1  0
 10 11  2  0
 11 12  1  0
 12 13  2  0
 13 14  1  0
  1 15  1  0
 15 16  2  0
 16 17  1  0
 17 18  2  0
 18 19  1  0
 19 20  1  0
 20 21  1  0
 21 22  1  6
 21 23  1  0
 23 24  1  0
 24 25  1  0
 25 26  1  0
 26 27  1  0
 27 28  2  0
 13  4  1  0
 28 15  1  0
 12  7  1  0
 27 18  1  0
M  END
>  <AAScore>  (1) 
1555.8135043963434

>  <RootName>  (1) 
./4ZLY/04_DeltaGEst/trajectory_01/rank_00/lead_0173

$$$$
