confid_1
     RDKit          3D

 28 32  0  0  0  0  0  0  0  0999 V2000
   24.4800   26.1000   36.1300 N   0  0  0  0  0  0  0  0  0  0  0  0
   25.2500   26.2500   34.9900 C   0  0  0  0  0  0  0  0  0  0  0  0
   24.7400   25.7600   33.9900 O   0  0  0  0  0  0  0  0  0  0  0  0
   26.5900   26.8900   34.9600 C   0  0  0  0  0  0  0  0  0  0  0  0
   27.0600   27.2400   36.1600 N   0  0  0  0  0  0  0  0  0  0  0  0
   28.3000   27.7100   36.2400 N   0  0  0  0  0  0  0  0  0  0  0  0
   29.0500   27.9600   35.1500 C   0  0  0  0  0  0  0  0  0  0  0  0
   30.3400   28.4900   35.2600 C   0  0  0  0  0  0  0  0  0  0  0  0
   31.1100   28.8200   34.1400 C   0  0  0  0  0  0  0  0  0  0  0  0
   30.5200   28.6700   32.8800 C   0  0  0  0  0  0  0  0  0  0  0  0
   29.2900   28.0200   32.7700 C   0  0  0  0  0  0  0  0  0  0  0  0
   28.5200   27.7100   33.8900 C   0  0  0  0  0  0  0  0  0  0  0  0
   27.2700   27.0800   33.7600 C   0  0  0  0  0  0  0  0  0  0  0  0
   26.7500   26.8800   32.4900 N   0  0  0  0  0  0  0  0  0  0  0  0
   23.5311   25.0368   36.3699 C   0  0  0  0  0  0  0  0  0  0  0  0
   23.5606   23.9913   35.5840 N   0  0  0  0  0  0  0  0  0  0  0  0
   22.8045   22.7757   35.4399 C   0  0  0  0  0  0  0  0  0  0  0  0
   21.5379   22.6240   35.8092 C   0  0  0  0  0  0  0  0  0  0  0  0
   20.3513   21.8702   35.2773 C   0  0  0  0  0  0  0  0  0  0  0  0
   19.4138   22.5567   36.0426 O   0  0  0  0  0  0  0  0  0  0  0  0
   20.4679   23.2022   36.6778 C   0  0  2  0  0  0  0  0  0  0  0  0
   20.4212   24.7230   36.5887 C   0  0  0  0  0  0  0  0  0  0  0  0
   21.3534   25.2220   37.6443 C   0  0  0  0  0  0  0  0  0  0  0  0
   22.6925   25.1489   37.5906 C   0  0  0  0  0  0  0  0  0  0  0  0
   23.2888   25.4437   38.9445 C   0  0  0  0  0  0  0  0  0  0  0  0
   22.0572   25.6014   39.7540 C   0  0  0  0  0  0  0  0  0  0  0  0
   22.0330   25.8123   40.9948 O   0  0  0  0  0  0  0  0  0  0  0  0
   20.8938   25.4785   38.9642 N   0  0  0  0  0  0  0  0  0  0  0  0
  1  2  1  0
  2  3  2  0
  2  4  1  0
  4  5  2  0
  5  6  1  0
  6  7  2  0
  7  8  1  0
  8  9  2  0
  9 10  1  0
 10 11  2  0
 11 12  1  0
 12 13  2  0
 13 14  1  0
  1 15  1  0
 15 16  2  0
 16 17  1  0
 17 18  2  0
 18 19  1  0
 19 20  1  0
 20 21  1  0
 21 22  1  6
 22 23  1  0
 23 24  2  0
 24 25  1  0
 25 26  1  0
 26 27  2  0
 26 28  1  0
 13  4  1  0
 24 15  1  0
 12  7  1  0
 21 18  1  0
 28 23  1  0
M  END
>  <AAScore>  (1) 
3946.646636356588

>  <RootName>  (1) 
./4ZLY/04_DeltaGEst/trajectory_00/rank_01/lead_0047

$$$$
