confid_0
     RDKit          3D

 27 30  0  0  0  0  0  0  0  0999 V2000
   24.5500   26.3900   36.2500 N   0  0  0  0  0  0  0  0  0  0  0  0
   25.6000   26.1300   35.4000 C   0  0  0  0  0  0  0  0  0  0  0  0
   25.4300   25.4300   34.4200 O   0  0  0  0  0  0  0  0  0  0  0  0
   26.9800   26.6300   35.7100 C   0  0  0  0  0  0  0  0  0  0  0  0
   27.3200   26.8200   36.9800 N   0  0  0  0  0  0  0  0  0  0  0  0
   28.4700   27.4000   37.3100 N   0  0  0  0  0  0  0  0  0  0  0  0
   29.4000   27.6300   36.3700 C   0  0  0  0  0  0  0  0  0  0  0  0
   30.6600   28.0500   36.8000 C   0  0  0  0  0  0  0  0  0  0  0  0
   31.5700   28.3600   35.7800 C   0  0  0  0  0  0  0  0  0  0  0  0
   31.3700   28.1000   34.4300 C   0  0  0  0  0  0  0  0  0  0  0  0
   30.1200   27.5900   34.0500 C   0  0  0  0  0  0  0  0  0  0  0  0
   29.1500   27.3400   35.0300 C   0  0  0  0  0  0  0  0  0  0  0  0
   27.8800   26.8900   34.6600 C   0  0  0  0  0  0  0  0  0  0  0  0
   27.4800   26.6100   33.3700 N   0  0  0  0  0  0  0  0  0  0  0  0
   30.9649   28.3068   38.1783 N   0  0  0  0  0  0  0  0  0  0  0  0
   31.0203   27.2692   39.1921 C   0  0  0  0  0  0  0  0  0  0  0  0
   31.1355   28.0122   40.5268 C   0  0  2  0  0  0  0  0  0  0  0  0
   29.8300   27.9968   41.2948 C   0  0  0  0  0  0  0  0  0  0  0  0
   29.8086   27.4764   42.5525 N   0  0  0  0  0  0  0  0  0  0  0  0
   28.6700   27.4176   43.2949 C   0  0  0  0  0  0  0  0  0  0  0  0
   27.4656   27.8911   42.7603 C   0  0  0  0  0  0  0  0  0  0  0  0
   27.4525   28.4497   41.4760 C   0  0  0  0  0  0  0  0  0  0  0  0
   26.1665   28.9230   40.8661 C   0  0  0  0  0  0  0  0  0  0  0  0
   28.6401   28.4945   40.7356 C   0  0  0  0  0  0  0  0  0  0  0  0
   28.7039   26.8106   44.6612 C   0  0  0  0  0  0  0  0  0  0  0  0
   31.5723   29.4436   40.1704 C   0  0  0  0  0  0  0  0  0  0  0  0
   31.2586   29.6328   38.6895 C   0  0  0  0  0  0  0  0  0  0  0  0
  1  2  1  0
  2  3  2  0
  2  4  1  0
  4  5  2  0
  5  6  1  0
  6  7  2  0
  7  8  1  0
  8  9  2  0
  9 10  1  0
 10 11  2  0
 11 12  1  0
 12 13  2  0
 13 14  1  0
  8 15  1  0
 15 16  1  0
 16 17  1  0
 17 18  1  6
 18 19  2  0
 19 20  1  0
 20 21  2  0
 21 22  1  0
 22 23  1  0
 22 24  2  0
 20 25  1  0
 17 26  1  0
 26 27  1  0
 13  4  1  0
 27 15  1  0
 12  7  1  0
 24 18  1  0
M  END
>  <AAScore>  (1) 
21.35812091680443

>  <RootName>  (1) 
./4ZLY/04_DeltaGEst/trajectory_01/rank_01/lead_0372

$$$$
