confid_5
     RDKit          3D

 29 32  0  0  0  0  0  0  0  0999 V2000
   24.6900   26.1200   35.5300 N   0  0  0  0  0  0  0  0  0  0  0  0
   25.6600   25.6700   34.6600 C   0  0  0  0  0  0  0  0  0  0  0  0
   25.2400   25.0100   33.7200 O   0  0  0  0  0  0  0  0  0  0  0  0
   27.0300   26.2200   34.8800 C   0  0  0  0  0  0  0  0  0  0  0  0
   27.3500   26.7300   36.0700 N   0  0  0  0  0  0  0  0  0  0  0  0
   28.5700   27.1800   36.3300 N   0  0  0  0  0  0  0  0  0  0  0  0
   29.5300   27.1100   35.3900 C   0  0  0  0  0  0  0  0  0  0  0  0
   30.8300   27.5700   35.6500 C   0  0  0  0  0  0  0  0  0  0  0  0
   31.8500   27.5400   34.6900 C   0  0  0  0  0  0  0  0  0  0  0  0
   31.5100   27.1200   33.4000 C   0  0  0  0  0  0  0  0  0  0  0  0
   30.2200   26.6300   33.1100 C   0  0  0  0  0  0  0  0  0  0  0  0
   29.2400   26.6600   34.1000 C   0  0  0  0  0  0  0  0  0  0  0  0
   27.9300   26.2600   33.8100 C   0  0  0  0  0  0  0  0  0  0  0  0
   27.5200   25.7100   32.6100 N   0  0  0  0  0  0  0  0  0  0  0  0
   31.1603   28.1400   36.9310 N   0  0  0  0  0  0  0  0  0  0  0  0
   30.8194   27.4697   38.1919 C   0  0  0  0  0  0  0  0  0  0  0  0
   31.8966   27.7538   39.2354 C   0  0  0  0  0  0  0  0  0  0  0  0
   32.1840   29.1880   39.2551 N   0  0  0  0  0  0  0  0  0  0  0  0
   32.6793   29.8187   40.4407 C   0  0  0  0  0  0  0  0  0  0  0  0
   33.8620   30.5202   40.5289 C   0  0  0  0  0  0  0  0  0  0  0  0
   33.9043   31.0306   41.8139 C   0  0  0  0  0  0  0  0  0  0  0  0
   34.9994   31.9269   42.3242 C   0  0  0  0  0  0  0  0  0  0  0  0
   34.8497   33.3398   41.7653 C   0  0  0  0  0  0  0  0  0  0  0  0
   32.7879   30.6785   42.4995 N   0  0  0  0  0  0  0  0  0  0  0  0
   32.0212   29.9498   41.6530 C   0  0  0  0  0  0  0  0  0  0  0  0
   30.6395   29.4522   41.9641 C   0  0  0  0  0  0  0  0  0  0  0  0
   32.4409   31.0999   43.8599 C   0  0  0  0  0  0  0  0  0  0  0  0
   32.2624   29.8874   38.0393 N   0  0  0  0  0  0  0  0  0  0  0  0
   31.8028   29.3926   36.9581 N   0  0  0  0  0  0  0  0  0  0  0  0
  1  2  1  0
  2  3  2  0
  2  4  1  0
  4  5  2  0
  5  6  1  0
  6  7  2  0
  7  8  1  0
  8  9  2  0
  9 10  1  0
 10 11  2  0
 11 12  1  0
 12 13  2  0
 13 14  1  0
  8 15  1  0
 15 16  1  0
 16 17  1  0
 17 18  1  0
 18 19  1  0
 19 20  1  0
 20 21  2  0
 21 22  1  0
 22 23  1  0
 21 24  1  0
 24 25  1  0
 25 26  1  0
 24 27  1  0
 18 28  1  0
 28 29  2  0
 13  4  1  0
 29 15  1  0
 12  7  1  0
 25 19  2  0
M  END
>  <AAScore>  (1) 
1312.879982390232

>  <RootName>  (1) 
./4ZLY/04_DeltaGEst/trajectory_02/rank_01/lead_0209

$$$$
