confid_16
     RDKit          3D

 28 31  0  0  0  0  0  0  0  0999 V2000
   24.6900   26.1200   35.5300 N   0  0  0  0  0  0  0  0  0  0  0  0
   25.6600   25.6700   34.6600 C   0  0  0  0  0  0  0  0  0  0  0  0
   25.2400   25.0100   33.7200 O   0  0  0  0  0  0  0  0  0  0  0  0
   27.0300   26.2200   34.8800 C   0  0  0  0  0  0  0  0  0  0  0  0
   27.3500   26.7300   36.0700 N   0  0  0  0  0  0  0  0  0  0  0  0
   28.5700   27.1800   36.3300 N   0  0  0  0  0  0  0  0  0  0  0  0
   29.5300   27.1100   35.3900 C   0  0  0  0  0  0  0  0  0  0  0  0
   30.8300   27.5700   35.6500 C   0  0  0  0  0  0  0  0  0  0  0  0
   31.8500   27.5400   34.6900 C   0  0  0  0  0  0  0  0  0  0  0  0
   31.5100   27.1200   33.4000 C   0  0  0  0  0  0  0  0  0  0  0  0
   30.2200   26.6300   33.1100 C   0  0  0  0  0  0  0  0  0  0  0  0
   29.2400   26.6600   34.1000 C   0  0  0  0  0  0  0  0  0  0  0  0
   27.9300   26.2600   33.8100 C   0  0  0  0  0  0  0  0  0  0  0  0
   27.5200   25.7100   32.6100 N   0  0  0  0  0  0  0  0  0  0  0  0
   23.2787   25.8941   35.3438 C   0  0  0  0  0  0  0  0  0  0  0  0
   22.7432   26.0955   34.1112 N   0  0  0  0  0  0  0  0  0  0  0  0
   21.4200   25.9726   33.8616 C   0  0  0  0  0  0  0  0  0  0  0  0
   20.5323   25.6604   34.8935 C   0  0  0  0  0  0  0  0  0  0  0  0
   19.0578   25.5109   34.5771 C   0  0  2  0  0  0  0  0  0  0  0  0
   18.2094   25.9508   35.7777 C   0  0  0  0  0  0  0  0  0  0  0  0
   18.6299   25.2384   36.9876 N   0  0  0  0  0  0  0  0  0  0  0  0
   17.6393   24.6923   37.9184 C   0  0  0  0  0  0  0  0  0  0  0  0
   20.0361   25.0951   37.2624 C   0  0  0  0  0  0  0  0  0  0  0  0
   20.4008   24.6684   38.3908 O   0  0  0  0  0  0  0  0  0  0  0  0
   21.0332   25.4248   36.1959 C   0  0  0  0  0  0  0  0  0  0  0  0
   22.4386   25.5243   36.4264 C   0  0  0  0  0  0  0  0  0  0  0  0
   23.0372   25.2060   37.7800 C   0  0  0  0  0  0  0  0  0  0  0  0
   18.7438   24.0651   34.1716 C   0  0  0  0  0  0  0  0  0  0  0  0
  1  2  1  0
  2  3  2  0
  2  4  1  0
  4  5  2  0
  5  6  1  0
  6  7  2  0
  7  8  1  0
  8  9  2  0
  9 10  1  0
 10 11  2  0
 11 12  1  0
 12 13  2  0
 13 14  1  0
  1 15  1  0
 15 16  2  0
 16 17  1  0
 17 18  2  0
 18 19  1  0
 19 20  1  0
 20 21  1  0
 21 22  1  0
 21 23  1  0
 23 24  2  0
 23 25  1  0
 25 26  2  0
 26 27  1  0
 19 28  1  1
 13  4  1  0
 26 15  1  0
 12  7  1  0
 25 18  1  0
M  END
>  <AAScore>  (1) 
4805.392942305527

>  <RootName>  (1) 
./4ZLY/04_DeltaGEst/trajectory_02/rank_00/lead_0244

$$$$
