confid_8
     RDKit          3D

 27 30  0  0  0  0  0  0  0  0999 V2000
   24.2000   26.2400   35.6900 N   0  0  0  0  0  0  0  0  0  0  0  0
   24.8500   26.2800   34.4800 C   0  0  0  0  0  0  0  0  0  0  0  0
   24.3100   25.7400   33.5400 O   0  0  0  0  0  0  0  0  0  0  0  0
   26.1800   26.9700   34.4700 C   0  0  0  0  0  0  0  0  0  0  0  0
   26.6500   27.6000   35.5500 N   0  0  0  0  0  0  0  0  0  0  0  0
   27.7900   28.2700   35.6200 N   0  0  0  0  0  0  0  0  0  0  0  0
   28.5400   28.3000   34.5100 C   0  0  0  0  0  0  0  0  0  0  0  0
   29.7700   28.9400   34.5600 C   0  0  0  0  0  0  0  0  0  0  0  0
   30.7000   28.8900   33.5000 C   0  0  0  0  0  0  0  0  0  0  0  0
   30.3700   28.1400   32.3700 C   0  0  0  0  0  0  0  0  0  0  0  0
   29.1200   27.5200   32.2800 C   0  0  0  0  0  0  0  0  0  0  0  0
   28.2100   27.6100   33.3300 C   0  0  0  0  0  0  0  0  0  0  0  0
   26.9700   26.9700   33.3100 C   0  0  0  0  0  0  0  0  0  0  0  0
   26.5300   26.2400   32.2200 N   0  0  0  0  0  0  0  0  0  0  0  0
   30.1409   29.6595   35.7487 N   0  0  0  0  0  0  0  0  0  0  0  0
   30.6032   28.9232   36.9243 C   0  0  0  0  0  0  0  0  0  0  0  0
   29.9787   29.5289   38.1771 C   0  0  0  0  0  0  0  0  0  0  0  0
   30.1329   31.0306   38.2094 C   0  0  0  0  0  0  0  0  0  0  0  0
   30.0304   31.7082   39.4384 C   0  0  0  0  0  0  0  0  0  0  0  0
   29.8391   31.0178   40.5918 F   0  0  0  0  0  0  0  0  0  0  0  0
   30.1197   33.1020   39.4856 C   0  0  0  0  0  0  0  0  0  0  0  0
   30.0282   33.7484   40.6743 F   0  0  0  0  0  0  0  0  0  0  0  0
   30.2985   33.8329   38.3111 C   0  0  0  0  0  0  0  0  0  0  0  0
   30.3826   33.1773   37.0812 C   0  0  0  0  0  0  0  0  0  0  0  0
   30.2870   31.7759   37.0141 C   0  0  0  0  0  0  0  0  0  0  0  0
   30.4070   31.0984   35.6671 C   0  0  0  0  0  0  0  0  0  0  0  0
   30.5577   33.9100   35.9519 F   0  0  0  0  0  0  0  0  0  0  0  0
  1  2  1  0
  2  3  2  0
  2  4  1  0
  4  5  2  0
  5  6  1  0
  6  7  2  0
  7  8  1  0
  8  9  2  0
  9 10  1  0
 10 11  2  0
 11 12  1  0
 12 13  2  0
 13 14  1  0
  8 15  1  0
 15 16  1  0
 16 17  1  0
 17 18  1  0
 18 19  2  0
 19 20  1  0
 19 21  1  0
 21 22  1  0
 21 23  2  0
 23 24  1  0
 24 25  2  0
 25 26  1  0
 24 27  1  0
 13  4  1  0
 26 15  1  0
 12  7  1  0
 25 18  1  0
M  END
>  <AAScore>  (1) 
-8.373502818715442

>  <RootName>  (1) 
./4ZLY/04_DeltaGEst/trajectory_04/rank_01/lead_0147

$$$$
