confid_7
     RDKit          3D

 27 30  0  0  0  0  0  0  0  0999 V2000
   24.5500   26.3900   36.2500 N   0  0  0  0  0  0  0  0  0  0  0  0
   25.6000   26.1300   35.4000 C   0  0  0  0  0  0  0  0  0  0  0  0
   25.4300   25.4300   34.4200 O   0  0  0  0  0  0  0  0  0  0  0  0
   26.9800   26.6300   35.7100 C   0  0  0  0  0  0  0  0  0  0  0  0
   27.3200   26.8200   36.9800 N   0  0  0  0  0  0  0  0  0  0  0  0
   28.4700   27.4000   37.3100 N   0  0  0  0  0  0  0  0  0  0  0  0
   29.4000   27.6300   36.3700 C   0  0  0  0  0  0  0  0  0  0  0  0
   30.6600   28.0500   36.8000 C   0  0  0  0  0  0  0  0  0  0  0  0
   31.5700   28.3600   35.7800 C   0  0  0  0  0  0  0  0  0  0  0  0
   31.3700   28.1000   34.4300 C   0  0  0  0  0  0  0  0  0  0  0  0
   30.1200   27.5900   34.0500 C   0  0  0  0  0  0  0  0  0  0  0  0
   29.1500   27.3400   35.0300 C   0  0  0  0  0  0  0  0  0  0  0  0
   27.8800   26.8900   34.6600 C   0  0  0  0  0  0  0  0  0  0  0  0
   27.4800   26.6100   33.3700 N   0  0  0  0  0  0  0  0  0  0  0  0
   30.9786   28.3149   38.1804 N   0  0  0  0  0  0  0  0  0  0  0  0
   32.1754   27.7338   38.7871 C   0  0  0  0  0  0  0  0  0  0  0  0
   33.0929   28.8560   39.2638 C   0  0  0  0  0  0  0  0  0  0  0  0
   32.3416   29.8852   40.0761 C   0  0  0  0  0  0  0  0  0  0  0  0
   33.0541   30.7371   40.9410 C   0  0  0  0  0  0  0  0  0  0  0  0
   34.4003   30.6018   41.0726 F   0  0  0  0  0  0  0  0  0  0  0  0
   32.3824   31.7310   41.6667 C   0  0  0  0  0  0  0  0  0  0  0  0
   33.1094   32.5974   42.5588 C   0  0  0  0  0  0  0  0  0  0  0  0
   33.6935   33.2934   43.2755 N   0  0  0  0  0  0  0  0  0  0  0  0
   31.0007   31.8871   41.5228 C   0  0  0  0  0  0  0  0  0  0  0  0
   30.2879   31.0606   40.6533 C   0  0  0  0  0  0  0  0  0  0  0  0
   30.9460   30.0667   39.9140 C   0  0  0  0  0  0  0  0  0  0  0  0
   30.1273   29.1790   39.0053 C   0  0  0  0  0  0  0  0  0  0  0  0
  1  2  1  0
  2  3  2  0
  2  4  1  0
  4  5  2  0
  5  6  1  0
  6  7  2  0
  7  8  1  0
  8  9  2  0
  9 10  1  0
 10 11  2  0
 11 12  1  0
 12 13  2  0
 13 14  1  0
  8 15  1  0
 15 16  1  0
 16 17  1  0
 17 18  1  0
 18 19  2  0
 19 20  1  0
 19 21  1  0
 21 22  1  0
 22 23  3  0
 21 24  2  0
 24 25  1  0
 25 26  2  0
 26 27  1  0
 13  4  1  0
 27 15  1  0
 12  7  1  0
 26 18  1  0
M  END
>  <AAScore>  (1) 
717.6852846445744

>  <RootName>  (1) 
./4ZLY/04_DeltaGEst/trajectory_01/rank_01/lead_0172

$$$$
