confid_16
     RDKit          3D

 28 30  0  0  0  0  0  0  0  0999 V2000
   24.5700   26.8800   35.5900 N   0  0  0  0  0  0  0  0  0  0  0  0
   25.5000   26.4000   34.6900 C   0  0  0  0  0  0  0  0  0  0  0  0
   25.1700   25.5200   33.9100 O   0  0  0  0  0  0  0  0  0  0  0  0
   26.8400   27.0200   34.7400 C   0  0  0  0  0  0  0  0  0  0  0  0
   27.3800   27.2800   35.9400 N   0  0  0  0  0  0  0  0  0  0  0  0
   28.6200   27.7400   36.0300 N   0  0  0  0  0  0  0  0  0  0  0  0
   29.3800   28.0000   34.9600 C   0  0  0  0  0  0  0  0  0  0  0  0
   30.6700   28.5000   35.1300 C   0  0  0  0  0  0  0  0  0  0  0  0
   31.5400   28.6100   34.0300 C   0  0  0  0  0  0  0  0  0  0  0  0
   31.0900   28.2200   32.7700 C   0  0  0  0  0  0  0  0  0  0  0  0
   29.8000   27.7000   32.6000 C   0  0  0  0  0  0  0  0  0  0  0  0
   28.9600   27.5500   33.7100 C   0  0  0  0  0  0  0  0  0  0  0  0
   27.6600   27.0300   33.5900 C   0  0  0  0  0  0  0  0  0  0  0  0
   27.1600   26.7400   32.3400 N   0  0  0  0  0  0  0  0  0  0  0  0
   33.1991   29.1567   34.2504 S   0  0  0  0  0  6  0  0  0  0  0  0
   33.6437   29.9139   33.0304 O   0  0  0  0  0  0  0  0  0  0  0  0
   33.2815   30.0713   35.4403 O   0  0  0  0  0  0  0  0  0  0  0  0
   34.2713   27.7546   34.5026 C   0  0  0  0  0  0  0  0  0  0  0  0
   33.9677   26.7243   33.4861 N   0  0  0  0  0  0  0  0  0  0  0  0
   33.2175   25.5968   34.0718 C   0  0  0  0  0  0  0  0  0  0  0  0
   32.7533   24.6439   32.9674 C   0  0  0  0  0  0  0  0  0  0  0  0
   33.9629   24.1009   32.1640 C   0  0  0  0  0  0  0  0  0  0  0  0
   33.5630   23.0830   31.0222 C   0  0  0  0  0  0  0  0  0  0  0  0
   32.8089   21.8739   31.6274 C   0  0  0  0  0  0  0  0  0  0  0  0
   32.6617   23.7247   29.9412 C   0  0  0  0  0  0  0  0  0  0  0  0
   34.8338   22.5317   30.3308 C   0  0  0  0  0  0  0  0  0  0  0  0
   34.8200   25.2943   31.6673 C   0  0  0  0  0  0  0  0  0  0  0  0
   35.1884   26.2321   32.8232 C   0  0  0  0  0  0  0  0  0  0  0  0
  1  2  1  0
  2  3  2  0
  2  4  1  0
  4  5  2  0
  5  6  1  0
  6  7  2  0
  7  8  1  0
  8  9  2  0
  9 10  1  0
 10 11  2  0
 11 12  1  0
 12 13  2  0
 13 14  1  0
  9 15  1  0
 15 16  2  0
 15 17  2  0
 15 18  1  0
 18 19  1  0
 19 20  1  0
 20 21  1  0
 21 22  1  0
 22 23  1  0
 23 24  1  0
 23 25  1  0
 23 26  1  0
 22 27  1  0
 27 28  1  0
 13  4  1  0
 28 19  1  0
 12  7  1  0
M  END
>  <AAScore>  (1) 
8630.155857969783

>  <RootName>  (1) 
./4ZLY/04_DeltaGEst/trajectory_05/rank_01/lead_0111

$$$$
