confid_0
     RDKit          3D

 29 32  0  0  0  0  0  0  0  0999 V2000
   25.3300   26.2600   34.7600 N   0  0  0  0  0  0  0  0  0  0  0  0
   26.1200   25.9200   33.6900 C   0  0  0  0  0  0  0  0  0  0  0  0
   25.6300   25.1100   32.9400 O   0  0  0  0  0  0  0  0  0  0  0  0
   27.5200   26.3800   33.4600 C   0  0  0  0  0  0  0  0  0  0  0  0
   28.1600   26.6300   34.6100 N   0  0  0  0  0  0  0  0  0  0  0  0
   29.4800   26.8500   34.5700 N   0  0  0  0  0  0  0  0  0  0  0  0
   30.1900   26.7800   33.4400 C   0  0  0  0  0  0  0  0  0  0  0  0
   31.5600   27.0500   33.5000 C   0  0  0  0  0  0  0  0  0  0  0  0
   32.2700   27.2400   32.3100 C   0  0  0  0  0  0  0  0  0  0  0  0
   31.6100   27.2500   31.0800 C   0  0  0  0  0  0  0  0  0  0  0  0
   30.2700   26.8700   31.0600 C   0  0  0  0  0  0  0  0  0  0  0  0
   29.5100   26.6900   32.2300 C   0  0  0  0  0  0  0  0  0  0  0  0
   28.1400   26.4100   32.2000 C   0  0  0  0  0  0  0  0  0  0  0  0
   27.4300   26.1300   31.0500 N   0  0  0  0  0  0  0  0  0  0  0  0
   23.8949   26.1708   34.8058 C   0  0  0  0  0  0  0  0  0  0  0  0
   23.1959   26.3687   35.9449 N   0  0  0  0  0  0  0  0  0  0  0  0
   21.8523   26.2854   35.7439 C   0  0  0  0  0  0  0  0  0  0  0  0
   20.8837   26.4636   36.8799 C   0  0  0  0  0  0  0  0  0  0  0  0
   19.7978   27.4060   36.5279 N   0  0  0  0  0  0  0  0  0  0  0  0
   18.7267   27.3231   37.5338 C   0  0  0  0  0  0  0  0  0  0  0  0
   20.2754   28.8045   36.4196 C   0  0  0  0  0  0  0  0  0  0  0  0
   21.0765   29.0232   35.1559 C   0  0  0  0  0  0  0  0  0  0  0  0
   20.6524   28.7215   33.9708 N   0  0  0  0  0  0  0  0  0  0  0  0
   19.3354   28.2010   33.6567 C   0  0  0  0  0  0  0  0  0  0  0  0
   19.2780   26.7321   33.5744 N   0  0  0  0  0  0  0  0  0  0  0  0
   20.1172   25.7899   33.9138 C   0  0  0  0  0  0  0  0  0  0  0  0
   21.4768   26.0429   34.4184 C   0  0  0  0  0  0  0  0  0  0  0  0
   22.8716   25.8986   33.4910 S   0  0  0  0  0  0  0  0  0  0  0  0
   19.7368   24.3713   33.6329 C   0  0  0  0  0  0  0  0  0  0  0  0
  1  2  1  0
  2  3  2  0
  2  4  1  0
  4  5  2  0
  5  6  1  0
  6  7  2  0
  7  8  1  0
  8  9  2  0
  9 10  1  0
 10 11  2  0
 11 12  1  0
 12 13  2  0
 13 14  1  0
  1 15  1  0
 15 16  2  0
 16 17  1  0
 17 18  1  0
 18 19  1  0
 19 20  1  0
 19 21  1  0
 21 22  1  0
 22 23  2  0
 23 24  1  0
 24 25  1  0
 25 26  2  0
 26 27  1  0
 27 28  1  0
 26 29  1  0
 13  4  1  0
 28 15  1  0
 12  7  1  0
 27 17  2  0
M  END
>  <AAScore>  (1) 
1138.380355518406

>  <RootName>  (1) 
./4ZLY/04_DeltaGEst/trajectory_03/rank_00/lead_0067

$$$$
