confid_0
     RDKit          3D

 27 30  0  0  0  0  0  0  0  0999 V2000
   24.4800   26.1000   36.1300 N   0  0  0  0  0  0  0  0  0  0  0  0
   25.2500   26.2500   34.9900 C   0  0  0  0  0  0  0  0  0  0  0  0
   24.7400   25.7600   33.9900 O   0  0  0  0  0  0  0  0  0  0  0  0
   26.5900   26.8900   34.9600 C   0  0  0  0  0  0  0  0  0  0  0  0
   27.0600   27.2400   36.1600 N   0  0  0  0  0  0  0  0  0  0  0  0
   28.3000   27.7100   36.2400 N   0  0  0  0  0  0  0  0  0  0  0  0
   29.0500   27.9600   35.1500 C   0  0  0  0  0  0  0  0  0  0  0  0
   30.3400   28.4900   35.2600 C   0  0  0  0  0  0  0  0  0  0  0  0
   31.1100   28.8200   34.1400 C   0  0  0  0  0  0  0  0  0  0  0  0
   30.5200   28.6700   32.8800 C   0  0  0  0  0  0  0  0  0  0  0  0
   29.2900   28.0200   32.7700 C   0  0  0  0  0  0  0  0  0  0  0  0
   28.5200   27.7100   33.8900 C   0  0  0  0  0  0  0  0  0  0  0  0
   27.2700   27.0800   33.7600 C   0  0  0  0  0  0  0  0  0  0  0  0
   26.7500   26.8800   32.4900 N   0  0  0  0  0  0  0  0  0  0  0  0
   23.4174   25.1452   36.3181 C   0  0  0  0  0  0  0  0  0  0  0  0
   22.6735   25.1925   37.4614 N   0  0  0  0  0  0  0  0  0  0  0  0
   21.6817   24.2866   37.6466 C   0  0  0  0  0  0  0  0  0  0  0  0
   20.7789   24.1923   38.8077 C   0  0  0  0  0  0  0  0  0  0  0  0
   19.8454   23.0834   38.4873 N   0  0  0  0  0  0  0  0  0  0  0  0
   19.8153   22.0776   39.5598 C   0  0  0  0  0  0  0  0  0  0  0  0
   20.2794   22.4902   37.1954 C   0  0  0  0  0  0  0  0  0  0  0  0
   21.4084   23.3269   36.7295 C   0  0  0  0  0  0  0  0  0  0  0  0
   22.1688   23.2537   35.5572 C   0  0  0  0  0  0  0  0  0  0  0  0
   23.1591   24.1779   35.3832 N   0  0  0  0  0  0  0  0  0  0  0  0
   21.8958   22.2266   34.4820 C   0  0  0  0  0  0  0  0  0  0  0  0
   23.1784   21.4713   34.1164 C   0  0  0  0  0  0  0  0  0  0  0  0
   21.2910   22.9042   33.2489 C   0  0  0  0  0  0  0  0  0  0  0  0
  1  2  1  0
  2  3  2  0
  2  4  1  0
  4  5  2  0
  5  6  1  0
  6  7  2  0
  7  8  1  0
  8  9  2  0
  9 10  1  0
 10 11  2  0
 11 12  1  0
 12 13  2  0
 13 14  1  0
  1 15  1  0
 15 16  2  0
 16 17  1  0
 17 18  1  0
 18 19  1  0
 19 20  1  0
 19 21  1  0
 21 22  1  0
 22 23  1  0
 23 24  2  0
 23 25  1  0
 25 26  1  0
 25 27  1  0
 13  4  1  0
 24 15  1  0
 12  7  1  0
 22 17  2  0
M  END
>  <AAScore>  (1) 
937.2323716984574

>  <RootName>  (1) 
./4ZLY/04_DeltaGEst/trajectory_00/rank_01/lead_0402

$$$$
