confid_17
     RDKit          3D

 27 30  0  0  0  0  0  0  0  0999 V2000
   24.6900   26.1200   35.5300 N   0  0  0  0  0  0  0  0  0  0  0  0
   25.6600   25.6700   34.6600 C   0  0  0  0  0  0  0  0  0  0  0  0
   25.2400   25.0100   33.7200 O   0  0  0  0  0  0  0  0  0  0  0  0
   27.0300   26.2200   34.8800 C   0  0  0  0  0  0  0  0  0  0  0  0
   27.3500   26.7300   36.0700 N   0  0  0  0  0  0  0  0  0  0  0  0
   28.5700   27.1800   36.3300 N   0  0  0  0  0  0  0  0  0  0  0  0
   29.5300   27.1100   35.3900 C   0  0  0  0  0  0  0  0  0  0  0  0
   30.8300   27.5700   35.6500 C   0  0  0  0  0  0  0  0  0  0  0  0
   31.8500   27.5400   34.6900 C   0  0  0  0  0  0  0  0  0  0  0  0
   31.5100   27.1200   33.4000 C   0  0  0  0  0  0  0  0  0  0  0  0
   30.2200   26.6300   33.1100 C   0  0  0  0  0  0  0  0  0  0  0  0
   29.2400   26.6600   34.1000 C   0  0  0  0  0  0  0  0  0  0  0  0
   27.9300   26.2600   33.8100 C   0  0  0  0  0  0  0  0  0  0  0  0
   27.5200   25.7100   32.6100 N   0  0  0  0  0  0  0  0  0  0  0  0
   31.1473   28.0596   36.9651 N   0  0  0  0  0  0  0  0  0  0  0  0
   31.1800   27.1226   38.1043 C   0  0  0  0  0  0  0  0  0  0  0  0
   30.4892   27.7363   39.3347 C   0  0  0  0  0  0  0  0  0  0  0  0
   30.9233   29.1576   39.5044 C   0  0  0  0  0  0  0  0  0  0  0  0
   30.7909   29.9782   40.6031 C   0  0  0  0  0  0  0  0  0  0  0  0
   31.2640   31.2058   40.1745 C   0  0  0  0  0  0  0  0  0  0  0  0
   31.6430   31.1542   38.9135 O   0  0  0  0  0  0  0  0  0  0  0  0
   31.4340   29.9304   38.4902 C   0  0  0  0  0  0  0  0  0  0  0  0
   31.7178   29.4095   37.1176 C   0  0  0  0  0  0  0  0  0  0  0  0
   31.3264   32.3507   40.9693 O   0  0  0  0  0  0  0  0  0  0  0  0
   31.8132   33.5904   40.4714 C   0  0  0  0  0  0  0  0  0  0  0  0
   31.8316   34.5165   41.4962 F   0  0  0  0  0  0  0  0  0  0  0  0
   30.9874   34.0485   39.4608 F   0  0  0  0  0  0  0  0  0  0  0  0
  1  2  1  0
  2  3  2  0
  2  4  1  0
  4  5  2  0
  5  6  1  0
  6  7  2  0
  7  8  1  0
  8  9  2  0
  9 10  1  0
 10 11  2  0
 11 12  1  0
 12 13  2  0
 13 14  1  0
  8 15  1  0
 15 16  1  0
 16 17  1  0
 17 18  1  0
 18 19  1  0
 19 20  2  0
 20 21  1  0
 21 22  1  0
 22 23  1  0
 20 24  1  0
 24 25  1  0
 25 26  1  0
 25 27  1  0
 13  4  1  0
 23 15  1  0
 12  7  1  0
 22 18  2  0
M  END
>  <AAScore>  (1) 
-5.458492412621719

>  <RootName>  (1) 
./4ZLY/04_DeltaGEst/trajectory_02/rank_01/lead_0042

$$$$
