confid_5
     RDKit          3D

 26 28  0  0  0  0  0  0  0  0999 V2000
   24.5700   26.8800   35.5900 N   0  0  0  0  0  0  0  0  0  0  0  0
   25.5000   26.4000   34.6900 C   0  0  0  0  0  0  0  0  0  0  0  0
   25.1700   25.5200   33.9100 O   0  0  0  0  0  0  0  0  0  0  0  0
   26.8400   27.0200   34.7400 C   0  0  0  0  0  0  0  0  0  0  0  0
   27.3800   27.2800   35.9400 N   0  0  0  0  0  0  0  0  0  0  0  0
   28.6200   27.7400   36.0300 N   0  0  0  0  0  0  0  0  0  0  0  0
   29.3800   28.0000   34.9600 C   0  0  0  0  0  0  0  0  0  0  0  0
   30.6700   28.5000   35.1300 C   0  0  0  0  0  0  0  0  0  0  0  0
   31.5400   28.6100   34.0300 C   0  0  0  0  0  0  0  0  0  0  0  0
   31.0900   28.2200   32.7700 C   0  0  0  0  0  0  0  0  0  0  0  0
   29.8000   27.7000   32.6000 C   0  0  0  0  0  0  0  0  0  0  0  0
   28.9600   27.5500   33.7100 C   0  0  0  0  0  0  0  0  0  0  0  0
   27.6600   27.0300   33.5900 C   0  0  0  0  0  0  0  0  0  0  0  0
   27.1600   26.7400   32.3400 N   0  0  0  0  0  0  0  0  0  0  0  0
   33.1551   29.2894   34.2314 S   0  0  0  0  0  6  0  0  0  0  0  0
   33.5759   29.1614   35.6706 O   0  0  0  0  0  0  0  0  0  0  0  0
   34.1317   28.5201   33.3841 O   0  0  0  0  0  0  0  0  0  0  0  0
   33.1884   31.0315   33.7813 C   0  0  1  0  0  0  0  0  0  0  0  0
   32.8279   31.2538   32.3181 C   0  0  0  0  0  0  0  0  0  0  0  0
   31.3895   31.5536   32.2771 N   0  0  0  0  0  0  0  0  0  0  0  0
   31.0110   32.3753   31.1060 C   0  0  0  0  0  0  0  0  0  0  0  0
   30.9394   31.5192   29.8233 C   0  0  0  0  0  0  0  0  0  0  0  0
   29.7636   30.5362   29.8833 C   0  0  0  0  0  0  0  0  0  0  0  0
   30.8158   32.4131   28.5847 C   0  0  0  0  0  0  0  0  0  0  0  0
   31.0882   32.2399   33.5407 C   0  0  0  0  0  0  0  0  0  0  0  0
   32.1476   31.8314   34.5591 C   0  0  0  0  0  0  0  0  0  0  0  0
  1  2  1  0
  2  3  2  0
  2  4  1  0
  4  5  2  0
  5  6  1  0
  6  7  2  0
  7  8  1  0
  8  9  2  0
  9 10  1  0
 10 11  2  0
 11 12  1  0
 12 13  2  0
 13 14  1  0
  9 15  1  0
 15 16  2  0
 15 17  2  0
 18 15  1  1
 18 19  1  0
 19 20  1  0
 20 21  1  0
 21 22  1  0
 22 23  1  0
 22 24  1  0
 20 25  1  0
 25 26  1  0
 13  4  1  0
 26 18  1  0
 12  7  1  0
M  END
>  <AAScore>  (1) 
-5.621302187993628

>  <RootName>  (1) 
./4ZLY/04_DeltaGEst/trajectory_05/rank_01/lead_0296

$$$$
