confid_8
     RDKit          3D

 28 31  0  0  0  0  0  0  0  0999 V2000
   24.2000   26.2400   35.6900 N   0  0  0  0  0  0  0  0  0  0  0  0
   24.8500   26.2800   34.4800 C   0  0  0  0  0  0  0  0  0  0  0  0
   24.3100   25.7400   33.5400 O   0  0  0  0  0  0  0  0  0  0  0  0
   26.1800   26.9700   34.4700 C   0  0  0  0  0  0  0  0  0  0  0  0
   26.6500   27.6000   35.5500 N   0  0  0  0  0  0  0  0  0  0  0  0
   27.7900   28.2700   35.6200 N   0  0  0  0  0  0  0  0  0  0  0  0
   28.5400   28.3000   34.5100 C   0  0  0  0  0  0  0  0  0  0  0  0
   29.7700   28.9400   34.5600 C   0  0  0  0  0  0  0  0  0  0  0  0
   30.7000   28.8900   33.5000 C   0  0  0  0  0  0  0  0  0  0  0  0
   30.3700   28.1400   32.3700 C   0  0  0  0  0  0  0  0  0  0  0  0
   29.1200   27.5200   32.2800 C   0  0  0  0  0  0  0  0  0  0  0  0
   28.2100   27.6100   33.3300 C   0  0  0  0  0  0  0  0  0  0  0  0
   26.9700   26.9700   33.3100 C   0  0  0  0  0  0  0  0  0  0  0  0
   26.5300   26.2400   32.2200 N   0  0  0  0  0  0  0  0  0  0  0  0
   22.7733   26.1022   35.8404 C   0  0  0  0  0  0  0  0  0  0  0  0
   21.9474   26.2177   34.7667 N   0  0  0  0  0  0  0  0  0  0  0  0
   20.6019   26.0920   34.8775 C   0  0  0  0  0  0  0  0  0  0  0  0
   20.0110   25.8616   36.1276 C   0  0  0  0  0  0  0  0  0  0  0  0
   18.5347   25.6034   36.2063 C   0  0  0  0  0  0  0  0  0  0  0  0
   17.9935   26.0591   37.4857 N   0  0  0  0  0  0  0  0  0  0  0  0
   16.6387   26.6133   37.5588 C   0  0  0  0  0  0  0  0  0  0  0  0
   18.7356   25.8290   38.6950 C   0  0  0  0  0  0  0  0  0  0  0  0
   18.1399   25.8928   39.8071 O   0  0  0  0  0  0  0  0  0  0  0  0
   20.2143   25.4617   38.6540 C   0  0  0  0  0  0  0  0  0  0  0  0
   20.3491   23.9545   38.9296 C   0  0  0  0  0  0  0  0  0  0  0  0
   20.9380   26.2584   39.7702 C   0  0  0  0  0  0  0  0  0  0  0  0
   20.8266   25.7683   37.2773 C   0  0  0  0  0  0  0  0  0  0  0  0
   22.2249   25.8634   37.1071 C   0  0  0  0  0  0  0  0  0  0  0  0
  1  2  1  0
  2  3  2  0
  2  4  1  0
  4  5  2  0
  5  6  1  0
  6  7  2  0
  7  8  1  0
  8  9  2  0
  9 10  1  0
 10 11  2  0
 11 12  1  0
 12 13  2  0
 13 14  1  0
  1 15  1  0
 15 16  2  0
 16 17  1  0
 17 18  2  0
 18 19  1  0
 19 20  1  0
 20 21  1  0
 20 22  1  0
 22 23  2  0
 22 24  1  0
 24 25  1  0
 24 26  1  0
 24 27  1  0
 27 28  2  0
 13  4  1  0
 28 15  1  0
 12  7  1  0
 27 18  1  0
M  END
>  <AAScore>  (1) 
491.75952336680217

>  <RootName>  (1) 
./4ZLY/04_DeltaGEst/trajectory_04/rank_00/lead_0081

$$$$
