confid_2
     RDKit          3D

 28 31  0  0  0  0  0  0  0  0999 V2000
   25.3300   26.2600   34.7600 N   0  0  0  0  0  0  0  0  0  0  0  0
   26.1200   25.9200   33.6900 C   0  0  0  0  0  0  0  0  0  0  0  0
   25.6300   25.1100   32.9400 O   0  0  0  0  0  0  0  0  0  0  0  0
   27.5200   26.3800   33.4600 C   0  0  0  0  0  0  0  0  0  0  0  0
   28.1600   26.6300   34.6100 N   0  0  0  0  0  0  0  0  0  0  0  0
   29.4800   26.8500   34.5700 N   0  0  0  0  0  0  0  0  0  0  0  0
   30.1900   26.7800   33.4400 C   0  0  0  0  0  0  0  0  0  0  0  0
   31.5600   27.0500   33.5000 C   0  0  0  0  0  0  0  0  0  0  0  0
   32.2700   27.2400   32.3100 C   0  0  0  0  0  0  0  0  0  0  0  0
   31.6100   27.2500   31.0800 C   0  0  0  0  0  0  0  0  0  0  0  0
   30.2700   26.8700   31.0600 C   0  0  0  0  0  0  0  0  0  0  0  0
   29.5100   26.6900   32.2300 C   0  0  0  0  0  0  0  0  0  0  0  0
   28.1400   26.4100   32.2000 C   0  0  0  0  0  0  0  0  0  0  0  0
   27.4300   26.1300   31.0500 N   0  0  0  0  0  0  0  0  0  0  0  0
   24.1473   25.5627   35.2043 C   0  0  0  0  0  0  0  0  0  0  0  0
   23.8166   24.3426   34.6936 N   0  0  0  0  0  0  0  0  0  0  0  0
   22.7226   23.6500   35.1124 C   0  0  0  0  0  0  0  0  0  0  0  0
   22.3822   22.3357   34.4656 C   0  0  0  0  0  0  0  0  0  0  0  0
   21.5771   21.4563   35.3366 N   0  0  0  0  0  0  0  0  0  0  0  0
   21.4374   20.0695   34.9567 C   0  0  0  0  0  0  0  0  0  0  0  0
   21.6466   19.7316   33.7584 O   0  0  0  0  0  0  0  0  0  0  0  0
   20.9908   19.0222   35.9490 C   0  0  0  0  0  0  0  0  0  0  0  0
   21.5500   17.6380   35.6244 C   0  0  0  0  0  0  0  0  0  0  0  0
   20.9524   21.9507   36.5787 C   0  0  0  0  0  0  0  0  0  0  0  0
   20.6586   23.4509   36.5117 C   0  0  0  0  0  0  0  0  0  0  0  0
   21.8879   24.1965   36.0947 C   0  0  0  0  0  0  0  0  0  0  0  0
   22.1975   25.4519   36.6307 C   0  0  0  0  0  0  0  0  0  0  0  0
   23.3347   26.1331   36.1941 C   0  0  0  0  0  0  0  0  0  0  0  0
  1  2  1  0
  2  3  2  0
  2  4  1  0
  4  5  2  0
  5  6  1  0
  6  7  2  0
  7  8  1  0
  8  9  2  0
  9 10  1  0
 10 11  2  0
 11 12  1  0
 12 13  2  0
 13 14  1  0
  1 15  1  0
 15 16  2  0
 16 17  1  0
 17 18  1  0
 18 19  1  0
 19 20  1  0
 20 21  2  0
 20 22  1  0
 22 23  1  0
 19 24  1  0
 24 25  1  0
 25 26  1  0
 26 27  1  0
 27 28  2  0
 13  4  1  0
 28 15  1  0
 12  7  1  0
 26 17  2  0
M  END
>  <AAScore>  (1) 
42251.01407667626

>  <RootName>  (1) 
./4ZLY/04_DeltaGEst/trajectory_03/rank_00/lead_0233

$$$$
