confid_17
     RDKit          3D

 29 32  0  0  0  0  0  0  0  0999 V2000
   24.5500   26.3900   36.2500 N   0  0  0  0  0  0  0  0  0  0  0  0
   25.6000   26.1300   35.4000 C   0  0  0  0  0  0  0  0  0  0  0  0
   25.4300   25.4300   34.4200 O   0  0  0  0  0  0  0  0  0  0  0  0
   26.9800   26.6300   35.7100 C   0  0  0  0  0  0  0  0  0  0  0  0
   27.3200   26.8200   36.9800 N   0  0  0  0  0  0  0  0  0  0  0  0
   28.4700   27.4000   37.3100 N   0  0  0  0  0  0  0  0  0  0  0  0
   29.4000   27.6300   36.3700 C   0  0  0  0  0  0  0  0  0  0  0  0
   30.6600   28.0500   36.8000 C   0  0  0  0  0  0  0  0  0  0  0  0
   31.5700   28.3600   35.7800 C   0  0  0  0  0  0  0  0  0  0  0  0
   31.3700   28.1000   34.4300 C   0  0  0  0  0  0  0  0  0  0  0  0
   30.1200   27.5900   34.0500 C   0  0  0  0  0  0  0  0  0  0  0  0
   29.1500   27.3400   35.0300 C   0  0  0  0  0  0  0  0  0  0  0  0
   27.8800   26.8900   34.6600 C   0  0  0  0  0  0  0  0  0  0  0  0
   27.4800   26.6100   33.3700 N   0  0  0  0  0  0  0  0  0  0  0  0
   30.9693   28.2774   38.1840 N   0  0  0  0  0  0  0  0  0  0  0  0
   31.0652   27.1399   39.1067 C   0  0  0  0  0  0  0  0  0  0  0  0
   30.3088   27.4501   40.4037 C   0  0  0  0  0  0  0  0  0  0  0  0
   30.5642   28.8238   40.8637 N   0  0  0  0  0  0  0  0  0  0  0  0
   29.8237   29.3434   41.9825 C   0  0  0  0  0  0  0  0  0  0  0  0
   29.1031   30.5393   41.8614 C   0  0  0  0  0  0  0  0  0  0  0  0
   28.3783   31.0428   42.9443 C   0  0  0  0  0  0  0  0  0  0  0  0
   28.3546   30.3588   44.1766 C   0  0  0  0  0  0  0  0  0  0  0  0
   27.6048   30.8810   45.3028 N   0  0  0  0  0  0  0  0  0  0  0  0
   27.1494   29.9873   46.3741 C   0  0  0  0  0  0  0  0  0  0  0  0
   27.3026   32.3141   45.3962 C   0  0  0  0  0  0  0  0  0  0  0  0
   29.0781   29.1542   44.2867 C   0  0  0  0  0  0  0  0  0  0  0  0
   29.8003   28.6522   43.2012 C   0  0  0  0  0  0  0  0  0  0  0  0
   31.5306   29.6718   40.1534 C   0  0  0  0  0  0  0  0  0  0  0  0
   31.2402   29.6444   38.6497 C   0  0  0  0  0  0  0  0  0  0  0  0
  1  2  1  0
  2  3  2  0
  2  4  1  0
  4  5  2  0
  5  6  1  0
  6  7  2  0
  7  8  1  0
  8  9  2  0
  9 10  1  0
 10 11  2  0
 11 12  1  0
 12 13  2  0
 13 14  1  0
  8 15  1  0
 15 16  1  0
 16 17  1  0
 17 18  1  0
 18 19  1  0
 19 20  2  0
 20 21  1  0
 21 22  2  0
 22 23  1  0
 23 24  1  0
 23 25  1  0
 22 26  1  0
 26 27  2  0
 18 28  1  0
 28 29  1  0
 13  4  1  0
 29 15  1  0
 12  7  1  0
 27 19  1  0
M  END
>  <AAScore>  (1) 
83.24053241119493

>  <RootName>  (1) 
./4ZLY/04_DeltaGEst/trajectory_01/rank_01/lead_0255

$$$$
