confid_18
     RDKit          3D

 27 31  0  0  0  0  0  0  0  0999 V2000
   24.5700   26.8800   35.5900 N   0  0  0  0  0  0  0  0  0  0  0  0
   25.5000   26.4000   34.6900 C   0  0  0  0  0  0  0  0  0  0  0  0
   25.1700   25.5200   33.9100 O   0  0  0  0  0  0  0  0  0  0  0  0
   26.8400   27.0200   34.7400 C   0  0  0  0  0  0  0  0  0  0  0  0
   27.3800   27.2800   35.9400 N   0  0  0  0  0  0  0  0  0  0  0  0
   28.6200   27.7400   36.0300 N   0  0  0  0  0  0  0  0  0  0  0  0
   29.3800   28.0000   34.9600 C   0  0  0  0  0  0  0  0  0  0  0  0
   30.6700   28.5000   35.1300 C   0  0  0  0  0  0  0  0  0  0  0  0
   31.5400   28.6100   34.0300 C   0  0  0  0  0  0  0  0  0  0  0  0
   31.0900   28.2200   32.7700 C   0  0  0  0  0  0  0  0  0  0  0  0
   29.8000   27.7000   32.6000 C   0  0  0  0  0  0  0  0  0  0  0  0
   28.9600   27.5500   33.7100 C   0  0  0  0  0  0  0  0  0  0  0  0
   27.6600   27.0300   33.5900 C   0  0  0  0  0  0  0  0  0  0  0  0
   27.1600   26.7400   32.3400 N   0  0  0  0  0  0  0  0  0  0  0  0
   23.2565   26.3455   35.5946 C   0  0  0  0  0  0  0  0  0  0  0  0
   22.3648   26.8208   36.4740 N   0  0  0  0  0  0  0  0  0  0  0  0
   21.0825   26.3577   36.5414 C   0  0  0  0  0  0  0  0  0  0  0  0
   20.6734   25.3481   35.6630 C   0  0  0  0  0  0  0  0  0  0  0  0
   20.2387   24.2755   34.7297 C   0  0  1  0  0  0  0  0  0  0  0  0
   19.2899   24.6837   33.6231 C   0  0  0  0  0  0  0  0  0  0  0  0
   18.0469   25.2301   34.1306 N   0  0  0  0  0  0  0  0  0  0  0  0
   17.2400   25.5758   32.9755 C   0  0  0  0  0  0  0  0  0  0  0  0
   15.8169   25.5079   33.4363 C   0  0  0  0  0  0  0  0  0  0  0  0
   15.8795   24.9455   34.8518 C   0  0  0  0  0  0  0  0  0  0  0  0
   17.2459   24.2539   34.8056 C   0  0  0  0  0  0  0  0  0  0  0  0
   21.5949   24.8812   34.7796 C   0  0  0  0  0  0  0  0  0  0  0  0
   22.8515   25.3804   34.7609 N   0  0  0  0  0  0  0  0  0  0  0  0
  1  2  1  0
  2  3  2  0
  2  4  1  0
  4  5  2  0
  5  6  1  0
  6  7  2  0
  7  8  1  0
  8  9  2  0
  9 10  1  0
 10 11  2  0
 11 12  1  0
 12 13  2  0
 13 14  1  0
  1 15  1  0
 15 16  2  0
 16 17  1  0
 17 18  2  0
 18 19  1  0
 19 20  1  6
 20 21  1  0
 21 22  1  0
 22 23  1  0
 23 24  1  0
 24 25  1  0
 19 26  1  0
 26 27  2  0
 13  4  1  0
 27 15  1  0
 12  7  1  0
 26 18  1  0
 25 21  1  0
M  END
>  <AAScore>  (1) 
678.9969967650953

>  <RootName>  (1) 
./4ZLY/04_DeltaGEst/trajectory_05/rank_00/lead_0267

$$$$
