confid_5
     RDKit          3D

 30 33  0  0  0  0  0  0  0  0999 V2000
   24.5500   26.3900   36.2500 N   0  0  0  0  0  0  0  0  0  0  0  0
   25.6000   26.1300   35.4000 C   0  0  0  0  0  0  0  0  0  0  0  0
   25.4300   25.4300   34.4200 O   0  0  0  0  0  0  0  0  0  0  0  0
   26.9800   26.6300   35.7100 C   0  0  0  0  0  0  0  0  0  0  0  0
   27.3200   26.8200   36.9800 N   0  0  0  0  0  0  0  0  0  0  0  0
   28.4700   27.4000   37.3100 N   0  0  0  0  0  0  0  0  0  0  0  0
   29.4000   27.6300   36.3700 C   0  0  0  0  0  0  0  0  0  0  0  0
   30.6600   28.0500   36.8000 C   0  0  0  0  0  0  0  0  0  0  0  0
   31.5700   28.3600   35.7800 C   0  0  0  0  0  0  0  0  0  0  0  0
   31.3700   28.1000   34.4300 C   0  0  0  0  0  0  0  0  0  0  0  0
   30.1200   27.5900   34.0500 C   0  0  0  0  0  0  0  0  0  0  0  0
   29.1500   27.3400   35.0300 C   0  0  0  0  0  0  0  0  0  0  0  0
   27.8800   26.8900   34.6600 C   0  0  0  0  0  0  0  0  0  0  0  0
   27.4800   26.6100   33.3700 N   0  0  0  0  0  0  0  0  0  0  0  0
   23.2177   25.7884   36.0928 C   0  0  0  0  0  0  0  0  0  0  0  0
   23.2181   24.3534   36.6457 C   0  0  0  0  0  0  0  0  0  0  0  0
   23.5609   24.3440   38.1452 C   0  0  0  0  0  0  0  0  0  0  0  0
   22.9767   25.4989   38.8451 N   0  0  0  0  0  0  0  0  0  0  0  0
   23.4803   25.9104   40.1342 C   0  0  0  0  0  0  0  0  0  0  0  0
   23.3569   27.1102   40.4967 O   0  0  0  0  0  0  0  0  0  0  0  0
   24.1225   24.9406   41.0894 C   0  0  0  0  0  0  0  0  0  0  0  0
   23.1475   24.5635   42.1713 C   0  0  0  0  0  0  0  0  0  0  0  0
   23.0910   25.3007   43.3606 C   0  0  0  0  0  0  0  0  0  0  0  0
   22.1518   24.9627   44.3372 C   0  0  0  0  0  0  0  0  0  0  0  0
   21.2949   23.9293   44.1290 N   0  0  0  0  0  0  0  0  0  0  0  0
   21.3234   23.1925   42.9877 C   0  0  0  0  0  0  0  0  0  0  0  0
   20.3246   22.0970   42.7884 C   0  0  0  0  0  0  0  0  0  0  0  0
   22.2402   23.5124   41.9748 C   0  0  0  0  0  0  0  0  0  0  0  0
   21.8338   26.2007   38.2405 C   0  0  0  0  0  0  0  0  0  0  0  0
   22.1451   26.6532   36.8006 C   0  0  0  0  0  0  0  0  0  0  0  0
  1  2  1  0
  2  3  2  0
  2  4  1  0
  4  5  2  0
  5  6  1  0
  6  7  2  0
  7  8  1  0
  8  9  2  0
  9 10  1  0
 10 11  2  0
 11 12  1  0
 12 13  2  0
 13 14  1  0
  1 15  1  0
 15 16  1  0
 16 17  1  0
 17 18  1  0
 18 19  1  0
 19 20  2  0
 19 21  1  0
 21 22  1  0
 22 23  2  0
 23 24  1  0
 24 25  2  0
 25 26  1  0
 26 27  1  0
 26 28  2  0
 18 29  1  0
 29 30  1  0
 13  4  1  0
 30 15  1  0
 12  7  1  0
 28 22  1  0
M  END
>  <AAScore>  (1) 
1352.357600657183

>  <RootName>  (1) 
./4ZLY/04_DeltaGEst/trajectory_01/rank_00/lead_0054

$$$$
