confid_0
     RDKit          3D

 29 32  0  0  0  0  0  0  0  0999 V2000
   24.6900   26.1200   35.5300 N   0  0  0  0  0  0  0  0  0  0  0  0
   25.6600   25.6700   34.6600 C   0  0  0  0  0  0  0  0  0  0  0  0
   25.2400   25.0100   33.7200 O   0  0  0  0  0  0  0  0  0  0  0  0
   27.0300   26.2200   34.8800 C   0  0  0  0  0  0  0  0  0  0  0  0
   27.3500   26.7300   36.0700 N   0  0  0  0  0  0  0  0  0  0  0  0
   28.5700   27.1800   36.3300 N   0  0  0  0  0  0  0  0  0  0  0  0
   29.5300   27.1100   35.3900 C   0  0  0  0  0  0  0  0  0  0  0  0
   30.8300   27.5700   35.6500 C   0  0  0  0  0  0  0  0  0  0  0  0
   31.8500   27.5400   34.6900 C   0  0  0  0  0  0  0  0  0  0  0  0
   31.5100   27.1200   33.4000 C   0  0  0  0  0  0  0  0  0  0  0  0
   30.2200   26.6300   33.1100 C   0  0  0  0  0  0  0  0  0  0  0  0
   29.2400   26.6600   34.1000 C   0  0  0  0  0  0  0  0  0  0  0  0
   27.9300   26.2600   33.8100 C   0  0  0  0  0  0  0  0  0  0  0  0
   27.5200   25.7100   32.6100 N   0  0  0  0  0  0  0  0  0  0  0  0
   23.2682   26.1501   35.2776 C   0  0  0  0  0  0  0  0  0  0  0  0
   22.8019   25.8827   34.0858 N   0  0  0  0  0  0  0  0  0  0  0  0
   21.4221   25.7983   33.6997 C   0  0  0  0  0  0  0  0  0  0  0  0
   20.4574   26.4397   34.3507 C   0  0  0  0  0  0  0  0  0  0  0  0
   19.0880   26.0319   34.8187 C   0  0  0  0  0  0  0  0  0  0  0  0
   18.9740   27.0430   35.8633 N   0  0  0  0  0  0  0  0  0  0  0  0
   18.9497   26.4287   37.2054 C   0  0  0  0  0  0  0  0  0  0  0  0
   17.6439   25.6638   37.4406 C   0  0  0  0  0  0  0  0  0  0  0  0
   20.2421   27.5892   35.3338 C   0  0  2  0  0  0  0  0  0  0  0  0
   19.8506   28.8636   34.5333 C   0  0  0  0  0  0  0  0  0  0  0  0
   21.5341   27.8374   36.2691 C   0  0  0  0  0  0  0  0  0  0  0  0
   21.1947   28.4206   37.6695 C   0  0  0  0  0  0  0  0  0  0  0  0
   22.4809   28.9019   35.6233 C   0  0  0  0  0  0  0  0  0  0  0  0
   22.3757   26.5641   36.3913 C   0  0  0  0  0  0  0  0  0  0  0  0
   22.3802   25.8819   37.4512 O   0  0  0  0  0  0  0  0  0  0  0  0
  1  2  1  0
  2  3  2  0
  2  4  1  0
  4  5  2  0
  5  6  1  0
  6  7  2  0
  7  8  1  0
  8  9  2  0
  9 10  1  0
 10 11  2  0
 11 12  1  0
 12 13  2  0
 13 14  1  0
  1 15  1  0
 15 16  2  0
 16 17  1  0
 17 18  2  0
 18 19  1  0
 19 20  1  0
 20 21  1  0
 21 22  1  0
 20 23  1  0
 23 24  1  6
 23 25  1  0
 25 26  1  0
 25 27  1  0
 25 28  1  0
 28 29  2  0
 13  4  1  0
 28 15  1  0
 12  7  1  0
 23 18  1  0
M  END
>  <AAScore>  (1) 
2715.662978911179

>  <RootName>  (1) 
./4ZLY/04_DeltaGEst/trajectory_02/rank_00/lead_0159

$$$$
