confid_7
     RDKit          3D

 29 32  0  0  0  0  0  0  0  0999 V2000
   25.3300   26.2600   34.7600 N   0  0  0  0  0  0  0  0  0  0  0  0
   26.1200   25.9200   33.6900 C   0  0  0  0  0  0  0  0  0  0  0  0
   25.6300   25.1100   32.9400 O   0  0  0  0  0  0  0  0  0  0  0  0
   27.5200   26.3800   33.4600 C   0  0  0  0  0  0  0  0  0  0  0  0
   28.1600   26.6300   34.6100 N   0  0  0  0  0  0  0  0  0  0  0  0
   29.4800   26.8500   34.5700 N   0  0  0  0  0  0  0  0  0  0  0  0
   30.1900   26.7800   33.4400 C   0  0  0  0  0  0  0  0  0  0  0  0
   31.5600   27.0500   33.5000 C   0  0  0  0  0  0  0  0  0  0  0  0
   32.2700   27.2400   32.3100 C   0  0  0  0  0  0  0  0  0  0  0  0
   31.6100   27.2500   31.0800 C   0  0  0  0  0  0  0  0  0  0  0  0
   30.2700   26.8700   31.0600 C   0  0  0  0  0  0  0  0  0  0  0  0
   29.5100   26.6900   32.2300 C   0  0  0  0  0  0  0  0  0  0  0  0
   28.1400   26.4100   32.2000 C   0  0  0  0  0  0  0  0  0  0  0  0
   27.4300   26.1300   31.0500 N   0  0  0  0  0  0  0  0  0  0  0  0
   26.5723   27.1733   30.4705 C   0  0  0  0  0  0  0  0  0  0  0  0
   25.9114   26.6860   29.1804 C   0  0  0  0  0  0  0  0  0  0  0  0
   26.9153   26.0266   28.3364 N   0  0  0  0  0  0  0  0  0  0  0  0
   27.2837   26.6055   27.0700 C   0  0  0  0  0  0  0  0  0  0  0  0
   27.2750   27.8592   26.9338 O   0  0  0  0  0  0  0  0  0  0  0  0
   27.6985   25.7605   25.9294 C   0  0  0  0  0  0  0  0  0  0  0  0
   28.6755   26.2091   25.0319 C   0  0  0  0  0  0  0  0  0  0  0  0
   29.0516   25.4305   23.9851 N   0  0  0  0  0  0  0  0  0  0  0  0
   28.5008   24.2083   23.7518 C   0  0  0  0  0  0  0  0  0  0  0  0
   28.9777   23.4176   22.5690 C   0  0  0  0  0  0  0  0  0  0  0  0
   27.4922   23.7228   24.6120 C   0  0  0  0  0  0  0  0  0  0  0  0
   26.8401   22.3852   24.3842 C   0  0  0  0  0  0  0  0  0  0  0  0
   27.0996   24.5142   25.7018 C   0  0  0  0  0  0  0  0  0  0  0  0
   27.7374   24.9425   28.9027 C   0  0  0  0  0  0  0  0  0  0  0  0
   27.5382   24.8053   30.4199 C   0  0  0  0  0  0  0  0  0  0  0  0
  1  2  1  0
  2  3  2  0
  2  4  1  0
  4  5  2  0
  5  6  1  0
  6  7  2  0
  7  8  1  0
  8  9  2  0
  9 10  1  0
 10 11  2  0
 11 12  1  0
 12 13  2  0
 13 14  1  0
 14 15  1  0
 15 16  1  0
 16 17  1  0
 17 18  1  0
 18 19  2  0
 18 20  1  0
 20 21  2  0
 21 22  1  0
 22 23  2  0
 23 24  1  0
 23 25  1  0
 25 26  1  0
 25 27  2  0
 17 28  1  0
 28 29  1  0
 13  4  1  0
 29 14  1  0
 12  7  1  0
 27 20  1  0
M  END
>  <AAScore>  (1) 
10.22604401374934

>  <RootName>  (1) 
./4ZLY/04_DeltaGEst/trajectory_03/rank_01/lead_0032

$$$$
