confid_19
     RDKit          3D

 27 31  0  0  0  0  0  0  0  0999 V2000
   24.5500   26.3900   36.2500 N   0  0  0  0  0  0  0  0  0  0  0  0
   25.6000   26.1300   35.4000 C   0  0  0  0  0  0  0  0  0  0  0  0
   25.4300   25.4300   34.4200 O   0  0  0  0  0  0  0  0  0  0  0  0
   26.9800   26.6300   35.7100 C   0  0  0  0  0  0  0  0  0  0  0  0
   27.3200   26.8200   36.9800 N   0  0  0  0  0  0  0  0  0  0  0  0
   28.4700   27.4000   37.3100 N   0  0  0  0  0  0  0  0  0  0  0  0
   29.4000   27.6300   36.3700 C   0  0  0  0  0  0  0  0  0  0  0  0
   30.6600   28.0500   36.8000 C   0  0  0  0  0  0  0  0  0  0  0  0
   31.5700   28.3600   35.7800 C   0  0  0  0  0  0  0  0  0  0  0  0
   31.3700   28.1000   34.4300 C   0  0  0  0  0  0  0  0  0  0  0  0
   30.1200   27.5900   34.0500 C   0  0  0  0  0  0  0  0  0  0  0  0
   29.1500   27.3400   35.0300 C   0  0  0  0  0  0  0  0  0  0  0  0
   27.8800   26.8900   34.6600 C   0  0  0  0  0  0  0  0  0  0  0  0
   27.4800   26.6100   33.3700 N   0  0  0  0  0  0  0  0  0  0  0  0
   30.9632   28.2876   38.1845 N   0  0  0  0  0  0  0  0  0  0  0  0
   31.4362   29.6065   38.6104 C   0  0  0  0  0  0  0  0  0  0  0  0
   30.7967   29.9692   39.9489 C   0  0  0  0  0  0  0  0  0  0  0  0
   30.9242   28.8469   40.9394 C   0  0  0  0  0  0  0  0  0  0  0  0
   30.8385   29.1188   42.2689 N   0  0  0  0  0  0  0  0  0  0  0  0
   30.8929   28.1325   43.2008 C   0  0  0  0  0  0  0  0  0  0  0  0
   31.0189   26.8017   42.7888 C   0  0  0  0  0  0  0  0  0  0  0  0
   31.1268   25.6938   43.7947 C   0  0  0  0  0  0  0  0  0  0  0  0
   29.8911   25.4960   44.6610 C   0  0  0  0  0  0  0  0  0  0  0  0
   30.2010   24.5110   43.5481 C   0  0  0  0  0  0  0  0  0  0  0  0
   31.1094   26.5262   41.4606 N   0  0  0  0  0  0  0  0  0  0  0  0
   31.0476   27.5071   40.5210 C   0  0  0  0  0  0  0  0  0  0  0  0
   31.1769   27.1356   39.0679 C   0  0  0  0  0  0  0  0  0  0  0  0
  1  2  1  0
  2  3  2  0
  2  4  1  0
  4  5  2  0
  5  6  1  0
  6  7  2  0
  7  8  1  0
  8  9  2  0
  9 10  1  0
 10 11  2  0
 11 12  1  0
 12 13  2  0
 13 14  1  0
  8 15  1  0
 15 16  1  0
 16 17  1  0
 17 18  1  0
 18 19  2  0
 19 20  1  0
 20 21  2  0
 21 22  1  0
 22 23  1  0
 23 24  1  0
 21 25  1  0
 25 26  2  0
 26 27  1  0
 13  4  1  0
 27 15  1  0
 12  7  1  0
 26 18  1  0
 24 22  1  0
M  END
>  <AAScore>  (1) 
14.241171005770251

>  <RootName>  (1) 
./4ZLY/04_DeltaGEst/trajectory_01/rank_01/lead_0239

$$$$
