confid_7
     RDKit          3D

 29 32  0  0  0  0  0  0  0  0999 V2000
   24.5500   26.3900   36.2500 N   0  0  0  0  0  0  0  0  0  0  0  0
   25.6000   26.1300   35.4000 C   0  0  0  0  0  0  0  0  0  0  0  0
   25.4300   25.4300   34.4200 O   0  0  0  0  0  0  0  0  0  0  0  0
   26.9800   26.6300   35.7100 C   0  0  0  0  0  0  0  0  0  0  0  0
   27.3200   26.8200   36.9800 N   0  0  0  0  0  0  0  0  0  0  0  0
   28.4700   27.4000   37.3100 N   0  0  0  0  0  0  0  0  0  0  0  0
   29.4000   27.6300   36.3700 C   0  0  0  0  0  0  0  0  0  0  0  0
   30.6600   28.0500   36.8000 C   0  0  0  0  0  0  0  0  0  0  0  0
   31.5700   28.3600   35.7800 C   0  0  0  0  0  0  0  0  0  0  0  0
   31.3700   28.1000   34.4300 C   0  0  0  0  0  0  0  0  0  0  0  0
   30.1200   27.5900   34.0500 C   0  0  0  0  0  0  0  0  0  0  0  0
   29.1500   27.3400   35.0300 C   0  0  0  0  0  0  0  0  0  0  0  0
   27.8800   26.8900   34.6600 C   0  0  0  0  0  0  0  0  0  0  0  0
   27.4800   26.6100   33.3700 N   0  0  0  0  0  0  0  0  0  0  0  0
   23.2064   25.8241   36.0689 C   0  0  0  0  0  0  0  0  0  0  0  0
   23.0794   24.5288   36.8762 C   0  0  0  0  0  0  0  0  0  0  0  0
   21.6849   23.8962   36.6920 C   0  0  0  0  0  0  0  0  0  0  0  0
   20.5722   24.8816   36.6100 N   0  0  0  0  0  0  0  0  0  0  0  0
   20.0020   25.0005   35.2510 C   0  0  0  0  0  0  0  0  0  0  0  0
   19.1812   23.7864   34.9224 C   0  0  0  0  0  0  0  0  0  0  0  0
   18.0937   23.3184   35.6338 C   0  0  0  0  0  0  0  0  0  0  0  0
   17.6580   22.1713   35.0784 N   0  0  0  0  0  0  0  0  0  0  0  0
   18.4237   21.9063   34.0302 N   0  0  0  0  0  0  0  0  0  0  0  0
   18.2754   20.6896   33.2320 C   0  0  0  0  0  0  0  0  0  0  0  0
   19.2884   19.6381   33.6694 C   0  0  0  0  0  0  0  0  0  0  0  0
   19.3628   22.8722   33.8988 C   0  0  0  0  0  0  0  0  0  0  0  0
   20.4788   22.8825   32.8937 C   0  0  0  0  0  0  0  0  0  0  0  0
   20.9168   26.1980   37.1847 C   0  0  0  0  0  0  0  0  0  0  0  0
   22.1248   26.8500   36.4829 C   0  0  0  0  0  0  0  0  0  0  0  0
  1  2  1  0
  2  3  2  0
  2  4  1  0
  4  5  2  0
  5  6  1  0
  6  7  2  0
  7  8  1  0
  8  9  2  0
  9 10  1  0
 10 11  2  0
 11 12  1  0
 12 13  2  0
 13 14  1  0
  1 15  1  0
 15 16  1  0
 16 17  1  0
 17 18  1  0
 18 19  1  0
 19 20  1  0
 20 21  1  0
 21 22  2  0
 22 23  1  0
 23 24  1  0
 24 25  1  0
 23 26  1  0
 26 27  1  0
 18 28  1  0
 28 29  1  0
 13  4  1  0
 29 15  1  0
 12  7  1  0
 26 20  2  0
M  END
>  <AAScore>  (1) 
1889.46746765028

>  <RootName>  (1) 
./4ZLY/04_DeltaGEst/trajectory_01/rank_00/lead_0025

$$$$
