confid_2
     RDKit          3D

 27 30  0  0  0  0  0  0  0  0999 V2000
   24.5700   26.8800   35.5900 N   0  0  0  0  0  0  0  0  0  0  0  0
   25.5000   26.4000   34.6900 C   0  0  0  0  0  0  0  0  0  0  0  0
   25.1700   25.5200   33.9100 O   0  0  0  0  0  0  0  0  0  0  0  0
   26.8400   27.0200   34.7400 C   0  0  0  0  0  0  0  0  0  0  0  0
   27.3800   27.2800   35.9400 N   0  0  0  0  0  0  0  0  0  0  0  0
   28.6200   27.7400   36.0300 N   0  0  0  0  0  0  0  0  0  0  0  0
   29.3800   28.0000   34.9600 C   0  0  0  0  0  0  0  0  0  0  0  0
   30.6700   28.5000   35.1300 C   0  0  0  0  0  0  0  0  0  0  0  0
   31.5400   28.6100   34.0300 C   0  0  0  0  0  0  0  0  0  0  0  0
   31.0900   28.2200   32.7700 C   0  0  0  0  0  0  0  0  0  0  0  0
   29.8000   27.7000   32.6000 C   0  0  0  0  0  0  0  0  0  0  0  0
   28.9600   27.5500   33.7100 C   0  0  0  0  0  0  0  0  0  0  0  0
   27.6600   27.0300   33.5900 C   0  0  0  0  0  0  0  0  0  0  0  0
   27.1600   26.7400   32.3400 N   0  0  0  0  0  0  0  0  0  0  0  0
   23.3474   26.2030   35.9288 C   0  0  0  0  0  0  0  0  0  0  0  0
   23.0485   24.9524   35.4771 N   0  0  0  0  0  0  0  0  0  0  0  0
   21.8613   24.5168   35.9498 C   0  0  0  0  0  0  0  0  0  0  0  0
   21.2554   23.2029   35.5729 C   0  0  0  0  0  0  0  0  0  0  0  0
   20.3548   23.3631   34.3764 C   0  0  0  0  0  0  0  0  0  0  0  0
   20.8274   23.8867   33.3277 O   0  0  0  0  0  0  0  0  0  0  0  0
   18.9874   22.9094   34.3860 N   0  0  0  0  0  0  0  0  0  0  0  0
   18.3497   22.2145   35.4950 C   0  0  0  0  0  0  0  0  0  0  0  0
   16.9863   21.7758   34.9753 C   0  0  0  0  0  0  0  0  0  0  0  0
   16.7265   22.6161   33.7259 C   0  0  0  0  0  0  0  0  0  0  0  0
   18.0937   23.0968   33.2543 C   0  0  0  0  0  0  0  0  0  0  0  0
   21.1291   25.6724   36.9280 S   0  0  0  0  0  0  0  0  0  0  0  0
   22.3909   26.7737   36.7646 C   0  0  0  0  0  0  0  0  0  0  0  0
  1  2  1  0
  2  3  2  0
  2  4  1  0
  4  5  2  0
  5  6  1  0
  6  7  2  0
  7  8  1  0
  8  9  2  0
  9 10  1  0
 10 11  2  0
 11 12  1  0
 12 13  2  0
 13 14  1  0
  1 15  1  0
 15 16  1  0
 16 17  2  0
 17 18  1  0
 18 19  1  0
 19 20  2  0
 19 21  1  0
 21 22  1  0
 22 23  1  0
 23 24  1  0
 24 25  1  0
 17 26  1  0
 26 27  1  0
 13  4  1  0
 27 15  2  0
 12  7  1  0
 25 21  1  0
M  END
>  <AAScore>  (1) 
15740.856231394871

>  <RootName>  (1) 
./4ZLY/04_DeltaGEst/trajectory_05/rank_00/lead_0431

$$$$
