confid_17
     RDKit          3D

 29 32  0  0  0  0  0  0  0  0999 V2000
   24.5500   26.3900   36.2500 N   0  0  0  0  0  0  0  0  0  0  0  0
   25.6000   26.1300   35.4000 C   0  0  0  0  0  0  0  0  0  0  0  0
   25.4300   25.4300   34.4200 O   0  0  0  0  0  0  0  0  0  0  0  0
   26.9800   26.6300   35.7100 C   0  0  0  0  0  0  0  0  0  0  0  0
   27.3200   26.8200   36.9800 N   0  0  0  0  0  0  0  0  0  0  0  0
   28.4700   27.4000   37.3100 N   0  0  0  0  0  0  0  0  0  0  0  0
   29.4000   27.6300   36.3700 C   0  0  0  0  0  0  0  0  0  0  0  0
   30.6600   28.0500   36.8000 C   0  0  0  0  0  0  0  0  0  0  0  0
   31.5700   28.3600   35.7800 C   0  0  0  0  0  0  0  0  0  0  0  0
   31.3700   28.1000   34.4300 C   0  0  0  0  0  0  0  0  0  0  0  0
   30.1200   27.5900   34.0500 C   0  0  0  0  0  0  0  0  0  0  0  0
   29.1500   27.3400   35.0300 C   0  0  0  0  0  0  0  0  0  0  0  0
   27.8800   26.8900   34.6600 C   0  0  0  0  0  0  0  0  0  0  0  0
   27.4800   26.6100   33.3700 N   0  0  0  0  0  0  0  0  0  0  0  0
   30.9883   28.3162   38.2173 C   0  0  0  0  0  0  0  0  0  0  0  0
   31.7799   27.3904   38.9042 C   0  0  0  0  0  0  0  0  0  0  0  0
   32.1036   27.5661   40.2609 C   0  0  0  0  0  0  0  0  0  0  0  0
   32.9120   26.4681   40.9271 C   0  0  0  0  0  0  0  0  0  0  0  0
   32.0710   25.2018   41.1897 C   0  0  0  0  0  0  0  0  0  0  0  0
   31.5612   25.1545   42.5775 N   0  0  0  0  0  0  0  0  0  0  0  0
   31.0798   23.7983   42.8904 C   0  0  0  0  0  0  0  0  0  0  0  0
   30.5024   26.1621   42.8268 C   0  0  0  0  0  0  0  0  0  0  0  0
   31.0475   27.2709   43.7419 C   0  0  0  0  0  0  0  0  0  0  0  0
   30.8070   28.5528   43.1928 O   0  0  0  0  0  0  0  0  0  0  0  0
   31.8926   28.9992   42.4006 C   0  0  0  0  0  0  0  0  0  0  0  0
   31.6295   28.7224   40.9372 C   0  0  0  0  0  0  0  0  0  0  0  0
   30.8282   29.6436   40.2393 C   0  0  0  0  0  0  0  0  0  0  0  0
   30.5199   29.4657   38.8838 C   0  0  0  0  0  0  0  0  0  0  0  0
   29.6613   30.4859   38.1820 C   0  0  0  0  0  0  0  0  0  0  0  0
  1  2  1  0
  2  3  2  0
  2  4  1  0
  4  5  2  0
  5  6  1  0
  6  7  2  0
  7  8  1  0
  8  9  2  0
  9 10  1  0
 10 11  2  0
 11 12  1  0
 12 13  2  0
 13 14  1  0
  8 15  1  0
 15 16  2  0
 16 17  1  0
 17 18  1  0
 18 19  1  0
 19 20  1  0
 20 21  1  0
 20 22  1  0
 22 23  1  0
 23 24  1  0
 24 25  1  0
 25 26  1  0
 26 27  1  0
 27 28  2  0
 28 29  1  0
 13  4  1  0
 28 15  1  0
 12  7  1  0
 26 17  2  0
M  END
>  <AAScore>  (1) 
20.01793428681649

>  <RootName>  (1) 
./4ZLY/04_DeltaGEst/trajectory_01/rank_01/lead_0225

$$$$
