confid_13
     RDKit          3D

 27 30  0  0  0  0  0  0  0  0999 V2000
   24.2000   26.2400   35.6900 N   0  0  0  0  0  0  0  0  0  0  0  0
   24.8500   26.2800   34.4800 C   0  0  0  0  0  0  0  0  0  0  0  0
   24.3100   25.7400   33.5400 O   0  0  0  0  0  0  0  0  0  0  0  0
   26.1800   26.9700   34.4700 C   0  0  0  0  0  0  0  0  0  0  0  0
   26.6500   27.6000   35.5500 N   0  0  0  0  0  0  0  0  0  0  0  0
   27.7900   28.2700   35.6200 N   0  0  0  0  0  0  0  0  0  0  0  0
   28.5400   28.3000   34.5100 C   0  0  0  0  0  0  0  0  0  0  0  0
   29.7700   28.9400   34.5600 C   0  0  0  0  0  0  0  0  0  0  0  0
   30.7000   28.8900   33.5000 C   0  0  0  0  0  0  0  0  0  0  0  0
   30.3700   28.1400   32.3700 C   0  0  0  0  0  0  0  0  0  0  0  0
   29.1200   27.5200   32.2800 C   0  0  0  0  0  0  0  0  0  0  0  0
   28.2100   27.6100   33.3300 C   0  0  0  0  0  0  0  0  0  0  0  0
   26.9700   26.9700   33.3100 C   0  0  0  0  0  0  0  0  0  0  0  0
   26.5300   26.2400   32.2200 N   0  0  0  0  0  0  0  0  0  0  0  0
   30.1407   29.6657   35.7417 N   0  0  0  0  0  0  0  0  0  0  0  0
   30.0232   31.1330   35.7299 C   0  0  0  0  0  0  0  0  0  0  0  0
   30.6965   31.7839   36.9468 C   0  0  0  0  0  0  0  0  0  0  0  0
   30.3558   31.0376   38.2117 C   0  0  0  0  0  0  0  0  0  0  0  0
   30.0998   31.7119   39.4242 C   0  0  0  0  0  0  0  0  0  0  0  0
   30.1282   33.1163   39.4456 O   0  0  0  0  0  0  0  0  0  0  0  0
   29.8839   33.9134   40.6002 C   0  0  0  0  0  0  0  0  0  0  0  0
   29.8254   30.9586   40.5832 C   0  0  0  0  0  0  0  0  0  0  0  0
   29.8302   29.5624   40.5384 C   0  0  0  0  0  0  0  0  0  0  0  0
   30.1085   28.8994   39.3425 C   0  0  0  0  0  0  0  0  0  0  0  0
   30.3637   29.6316   38.1757 C   0  0  0  0  0  0  0  0  0  0  0  0
   30.6993   28.9318   36.8861 C   0  0  0  0  0  0  0  0  0  0  0  0
   29.5743   28.8490   41.6629 F   0  0  0  0  0  0  0  0  0  0  0  0
  1  2  1  0
  2  3  2  0
  2  4  1  0
  4  5  2  0
  5  6  1  0
  6  7  2  0
  7  8  1  0
  8  9  2  0
  9 10  1  0
 10 11  2  0
 11 12  1  0
 12 13  2  0
 13 14  1  0
  8 15  1  0
 15 16  1  0
 16 17  1  0
 17 18  1  0
 18 19  2  0
 19 20  1  0
 20 21  1  0
 19 22  1  0
 22 23  2  0
 23 24  1  0
 24 25  2  0
 25 26  1  0
 23 27  1  0
 13  4  1  0
 26 15  1  0
 12  7  1  0
 25 18  1  0
M  END
>  <AAScore>  (1) 
-8.988420666906958

>  <RootName>  (1) 
./4ZLY/04_DeltaGEst/trajectory_04/rank_01/lead_0477

$$$$
