confid_15
     RDKit          3D

 31 34  0  0  0  0  0  0  0  0999 V2000
   24.5500   26.3900   36.2500 N   0  0  0  0  0  0  0  0  0  0  0  0
   25.6000   26.1300   35.4000 C   0  0  0  0  0  0  0  0  0  0  0  0
   25.4300   25.4300   34.4200 O   0  0  0  0  0  0  0  0  0  0  0  0
   26.9800   26.6300   35.7100 C   0  0  0  0  0  0  0  0  0  0  0  0
   27.3200   26.8200   36.9800 N   0  0  0  0  0  0  0  0  0  0  0  0
   28.4700   27.4000   37.3100 N   0  0  0  0  0  0  0  0  0  0  0  0
   29.4000   27.6300   36.3700 C   0  0  0  0  0  0  0  0  0  0  0  0
   30.6600   28.0500   36.8000 C   0  0  0  0  0  0  0  0  0  0  0  0
   31.5700   28.3600   35.7800 C   0  0  0  0  0  0  0  0  0  0  0  0
   31.3700   28.1000   34.4300 C   0  0  0  0  0  0  0  0  0  0  0  0
   30.1200   27.5900   34.0500 C   0  0  0  0  0  0  0  0  0  0  0  0
   29.1500   27.3400   35.0300 C   0  0  0  0  0  0  0  0  0  0  0  0
   27.8800   26.8900   34.6600 C   0  0  0  0  0  0  0  0  0  0  0  0
   27.4800   26.6100   33.3700 N   0  0  0  0  0  0  0  0  0  0  0  0
   30.9931   28.2625   38.1921 N   0  0  0  0  0  0  0  0  0  0  0  0
   31.8767   29.3223   38.6552 C   0  0  0  0  0  0  0  0  0  0  0  0
   31.9328   29.1701   40.1681 C   0  0  0  0  0  0  0  0  0  0  0  0
   31.5737   27.6954   40.4432 C   0  0  0  0  0  0  0  0  0  0  0  0
   30.6457   27.3360   39.2623 C   0  0  0  0  0  0  0  0  0  0  0  0
   30.8713   27.5542   41.8141 C   0  0  0  0  0  0  0  0  0  0  0  0
   30.5846   26.0901   42.1532 C   0  0  0  0  0  0  0  0  0  0  0  0
   31.8119   25.2899   42.0663 N   0  0  0  0  0  0  0  0  0  0  0  0
   32.6192   25.3712   40.8419 C   0  0  0  0  0  0  0  0  0  0  0  0
   32.8655   26.8324   40.4351 C   0  0  0  0  0  0  0  0  0  0  0  0
   31.9892   24.1993   42.9912 C   0  0  0  0  0  0  0  0  0  0  0  0
   31.7793   24.3890   44.2199 O   0  0  0  0  0  0  0  0  0  0  0  0
   32.3230   22.8069   42.5217 C   0  0  0  0  0  0  0  0  0  0  0  0
   31.0722   22.0743   42.0358 C   0  0  0  0  0  0  0  0  0  0  0  0
   31.4153   20.7946   41.6396 F   0  0  0  0  0  0  0  0  0  0  0  0
   30.1403   21.9921   43.0557 F   0  0  0  0  0  0  0  0  0  0  0  0
   30.5129   22.7401   40.9595 F   0  0  0  0  0  0  0  0  0  0  0  0
  1  2  1  0
  2  3  2  0
  2  4  1  0
  4  5  2  0
  5  6  1  0
  6  7  2  0
  7  8  1  0
  8  9  2  0
  9 10  1  0
 10 11  2  0
 11 12  1  0
 12 13  2  0
 13 14  1  0
  8 15  1  0
 15 16  1  0
 16 17  1  0
 17 18  1  0
 18 19  1  0
 18 20  1  0
 20 21  1  0
 21 22  1  0
 22 23  1  0
 23 24  1  0
 22 25  1  0
 25 26  2  0
 25 27  1  0
 27 28  1  0
 28 29  1  0
 28 30  1  0
 28 31  1  0
 13  4  1  0
 19 15  1  0
 12  7  1  0
 24 18  1  0
M  END
>  <AAScore>  (1) 
1237.5691359701552

>  <RootName>  (1) 
./4ZLY/04_DeltaGEst/trajectory_01/rank_01/lead_0029

$$$$
