confid_6
     RDKit          3D

 29 32  0  0  0  0  0  0  0  0999 V2000
   24.4800   26.1000   36.1300 N   0  0  0  0  0  0  0  0  0  0  0  0
   25.2500   26.2500   34.9900 C   0  0  0  0  0  0  0  0  0  0  0  0
   24.7400   25.7600   33.9900 O   0  0  0  0  0  0  0  0  0  0  0  0
   26.5900   26.8900   34.9600 C   0  0  0  0  0  0  0  0  0  0  0  0
   27.0600   27.2400   36.1600 N   0  0  0  0  0  0  0  0  0  0  0  0
   28.3000   27.7100   36.2400 N   0  0  0  0  0  0  0  0  0  0  0  0
   29.0500   27.9600   35.1500 C   0  0  0  0  0  0  0  0  0  0  0  0
   30.3400   28.4900   35.2600 C   0  0  0  0  0  0  0  0  0  0  0  0
   31.1100   28.8200   34.1400 C   0  0  0  0  0  0  0  0  0  0  0  0
   30.5200   28.6700   32.8800 C   0  0  0  0  0  0  0  0  0  0  0  0
   29.2900   28.0200   32.7700 C   0  0  0  0  0  0  0  0  0  0  0  0
   28.5200   27.7100   33.8900 C   0  0  0  0  0  0  0  0  0  0  0  0
   27.2700   27.0800   33.7600 C   0  0  0  0  0  0  0  0  0  0  0  0
   26.7500   26.8800   32.4900 N   0  0  0  0  0  0  0  0  0  0  0  0
   23.3311   25.2379   36.2304 C   0  0  0  0  0  0  0  0  0  0  0  0
   23.4233   23.9005   35.8119 C   0  0  0  0  0  0  0  0  0  0  0  0
   22.3508   23.0157   35.9890 C   0  0  0  0  0  0  0  0  0  0  0  0
   22.4955   21.5701   35.5832 C   0  0  0  0  0  0  0  0  0  0  0  0
   21.2019   20.9950   35.1913 N   0  0  0  0  0  0  0  0  0  0  0  0
   20.0011   21.4023   35.8727 C   0  0  0  0  0  0  0  0  0  0  0  0
   18.9077   20.8187   35.6399 O   0  0  0  0  0  0  0  0  0  0  0  0
   20.0443   22.4986   36.8953 C   0  0  0  0  0  0  0  0  0  0  0  0
   21.1757   23.4609   36.6249 C   0  0  0  0  0  0  0  0  0  0  0  0
   21.0945   24.7904   37.0750 C   0  0  0  0  0  0  0  0  0  0  0  0
   19.9756   25.2295   37.7066 F   0  0  0  0  0  0  0  0  0  0  0  0
   22.1493   25.6863   36.8571 C   0  0  0  0  0  0  0  0  0  0  0  0
   21.9916   27.0107   37.2872 O   0  0  0  0  0  0  0  0  0  0  0  0
   22.1362   28.1344   36.4223 C   0  0  0  0  0  0  0  0  0  0  0  0
   21.1474   19.9081   34.2104 C   0  0  0  0  0  0  0  0  0  0  0  0
  1  2  1  0
  2  3  2  0
  2  4  1  0
  4  5  2  0
  5  6  1  0
  6  7  2  0
  7  8  1  0
  8  9  2  0
  9 10  1  0
 10 11  2  0
 11 12  1  0
 12 13  2  0
 13 14  1  0
  1 15  1  0
 15 16  2  0
 16 17  1  0
 17 18  1  0
 18 19  1  0
 19 20  1  0
 20 21  2  0
 20 22  1  0
 22 23  1  0
 23 24  1  0
 24 25  1  0
 24 26  2  0
 26 27  1  0
 27 28  1  0
 19 29  1  0
 13  4  1  0
 26 15  1  0
 12  7  1  0
 23 17  2  0
M  END
>  <AAScore>  (1) 
844.7860228629812

>  <RootName>  (1) 
./4ZLY/04_DeltaGEst/trajectory_00/rank_00/lead_0066

$$$$
