confid_18
     RDKit          3D

 27 30  0  0  0  0  0  0  0  0999 V2000
   24.4800   26.1000   36.1300 N   0  0  0  0  0  0  0  0  0  0  0  0
   25.2500   26.2500   34.9900 C   0  0  0  0  0  0  0  0  0  0  0  0
   24.7400   25.7600   33.9900 O   0  0  0  0  0  0  0  0  0  0  0  0
   26.5900   26.8900   34.9600 C   0  0  0  0  0  0  0  0  0  0  0  0
   27.0600   27.2400   36.1600 N   0  0  0  0  0  0  0  0  0  0  0  0
   28.3000   27.7100   36.2400 N   0  0  0  0  0  0  0  0  0  0  0  0
   29.0500   27.9600   35.1500 C   0  0  0  0  0  0  0  0  0  0  0  0
   30.3400   28.4900   35.2600 C   0  0  0  0  0  0  0  0  0  0  0  0
   31.1100   28.8200   34.1400 C   0  0  0  0  0  0  0  0  0  0  0  0
   30.5200   28.6700   32.8800 C   0  0  0  0  0  0  0  0  0  0  0  0
   29.2900   28.0200   32.7700 C   0  0  0  0  0  0  0  0  0  0  0  0
   28.5200   27.7100   33.8900 C   0  0  0  0  0  0  0  0  0  0  0  0
   27.2700   27.0800   33.7600 C   0  0  0  0  0  0  0  0  0  0  0  0
   26.7500   26.8800   32.4900 N   0  0  0  0  0  0  0  0  0  0  0  0
   23.0418   26.0962   36.1571 C   0  0  0  0  0  0  0  0  0  0  0  0
   22.3901   25.6548   37.1822 N   0  0  0  0  0  0  0  0  0  0  0  0
   21.0074   25.8098   36.9036 C   0  0  0  0  0  0  0  0  0  0  0  0
   20.8090   26.3807   35.7241 C   0  0  0  0  0  0  0  0  0  0  0  0
   19.4615   26.5596   35.0837 C   0  0  0  0  0  0  0  0  0  0  0  0
   19.2598   27.9586   34.6435 N   0  0  0  0  0  0  0  0  0  0  0  0
   18.2564   27.9991   33.5661 C   0  0  0  0  0  0  0  0  0  0  0  0
   18.8328   28.8400   35.7568 C   0  0  0  0  0  0  0  0  0  0  0  0
   20.0176   29.2715   36.6255 C   0  0  0  0  0  0  0  0  0  0  0  0
   21.0380   29.8221   35.8113 O   0  0  0  0  0  0  0  0  0  0  0  0
   22.2556   29.1035   35.9042 C   0  0  0  0  0  0  0  0  0  0  0  0
   22.4035   28.1118   34.7300 C   0  0  0  0  0  0  0  0  0  0  0  0
   22.1367   26.6278   35.0746 C   0  0  1  0  0  0  0  0  0  0  0  0
  1  2  1  0
  2  3  2  0
  2  4  1  0
  4  5  2  0
  5  6  1  0
  6  7  2  0
  7  8  1  0
  8  9  2  0
  9 10  1  0
 10 11  2  0
 11 12  1  0
 12 13  2  0
 13 14  1  0
  1 15  1  0
 15 16  2  0
 16 17  1  0
 17 18  2  0
 18 19  1  0
 19 20  1  0
 20 21  1  0
 20 22  1  0
 22 23  1  0
 23 24  1  0
 24 25  1  0
 25 26  1  0
 27 26  1  1
 13  4  1  0
 27 15  1  0
 12  7  1  0
 27 18  1  0
M  END
>  <AAScore>  (1) 
794.8331526295651

>  <RootName>  (1) 
./4ZLY/04_DeltaGEst/trajectory_00/rank_01/lead_0190

$$$$
