confid_19
     RDKit          3D

 26 28  0  0  0  0  0  0  0  0999 V2000
   24.5700   26.8800   35.5900 N   0  0  0  0  0  0  0  0  0  0  0  0
   25.5000   26.4000   34.6900 C   0  0  0  0  0  0  0  0  0  0  0  0
   25.1700   25.5200   33.9100 O   0  0  0  0  0  0  0  0  0  0  0  0
   26.8400   27.0200   34.7400 C   0  0  0  0  0  0  0  0  0  0  0  0
   27.3800   27.2800   35.9400 N   0  0  0  0  0  0  0  0  0  0  0  0
   28.6200   27.7400   36.0300 N   0  0  0  0  0  0  0  0  0  0  0  0
   29.3800   28.0000   34.9600 C   0  0  0  0  0  0  0  0  0  0  0  0
   30.6700   28.5000   35.1300 C   0  0  0  0  0  0  0  0  0  0  0  0
   31.5400   28.6100   34.0300 C   0  0  0  0  0  0  0  0  0  0  0  0
   31.0900   28.2200   32.7700 C   0  0  0  0  0  0  0  0  0  0  0  0
   29.8000   27.7000   32.6000 C   0  0  0  0  0  0  0  0  0  0  0  0
   28.9600   27.5500   33.7100 C   0  0  0  0  0  0  0  0  0  0  0  0
   27.6600   27.0300   33.5900 C   0  0  0  0  0  0  0  0  0  0  0  0
   27.1600   26.7400   32.3400 N   0  0  0  0  0  0  0  0  0  0  0  0
   33.1576   29.2681   34.2435 S   0  0  0  0  0  6  0  0  0  0  0  0
   34.0566   28.7785   33.1426 O   0  0  0  0  0  0  0  0  0  0  0  0
   33.7153   28.8054   35.5606 O   0  0  0  0  0  0  0  0  0  0  0  0
   33.0673   31.0507   34.1967 C   0  0  0  0  0  0  0  0  0  0  0  0
   34.3839   31.6610   34.6137 C   0  0  0  0  0  0  0  0  0  0  0  0
   34.6431   32.0684   35.9486 C   0  0  0  0  0  0  0  0  0  0  0  0
   33.5937   31.9737   37.0258 C   0  0  0  0  0  0  0  0  0  0  0  0
   35.8988   32.6140   36.2689 C   0  0  0  0  0  0  0  0  0  0  0  0
   36.8919   32.7343   35.2957 C   0  0  0  0  0  0  0  0  0  0  0  0
   36.6448   32.3171   33.9877 C   0  0  0  0  0  0  0  0  0  0  0  0
   37.8979   32.4637   32.7689 Cl  0  0  0  0  0  0  0  0  0  0  0  0
   35.3997   31.7827   33.6489 C   0  0  0  0  0  0  0  0  0  0  0  0
  1  2  1  0
  2  3  2  0
  2  4  1  0
  4  5  2  0
  5  6  1  0
  6  7  2  0
  7  8  1  0
  8  9  2  0
  9 10  1  0
 10 11  2  0
 11 12  1  0
 12 13  2  0
 13 14  1  0
  9 15  1  0
 15 16  2  0
 15 17  2  0
 15 18  1  0
 18 19  1  0
 19 20  2  0
 20 21  1  0
 20 22  1  0
 22 23  2  0
 23 24  1  0
 24 25  1  0
 24 26  2  0
 13  4  1  0
 26 19  1  0
 12  7  1  0
M  END
>  <AAScore>  (1) 
-6.25543909656117

>  <RootName>  (1) 
./4ZLY/04_DeltaGEst/trajectory_05/rank_01/lead_0038

$$$$
