confid_5
     RDKit          3D

 28 31  0  0  0  0  0  0  0  0999 V2000
   24.4800   26.1000   36.1300 N   0  0  0  0  0  0  0  0  0  0  0  0
   25.2500   26.2500   34.9900 C   0  0  0  0  0  0  0  0  0  0  0  0
   24.7400   25.7600   33.9900 O   0  0  0  0  0  0  0  0  0  0  0  0
   26.5900   26.8900   34.9600 C   0  0  0  0  0  0  0  0  0  0  0  0
   27.0600   27.2400   36.1600 N   0  0  0  0  0  0  0  0  0  0  0  0
   28.3000   27.7100   36.2400 N   0  0  0  0  0  0  0  0  0  0  0  0
   29.0500   27.9600   35.1500 C   0  0  0  0  0  0  0  0  0  0  0  0
   30.3400   28.4900   35.2600 C   0  0  0  0  0  0  0  0  0  0  0  0
   31.1100   28.8200   34.1400 C   0  0  0  0  0  0  0  0  0  0  0  0
   30.5200   28.6700   32.8800 C   0  0  0  0  0  0  0  0  0  0  0  0
   29.2900   28.0200   32.7700 C   0  0  0  0  0  0  0  0  0  0  0  0
   28.5200   27.7100   33.8900 C   0  0  0  0  0  0  0  0  0  0  0  0
   27.2700   27.0800   33.7600 C   0  0  0  0  0  0  0  0  0  0  0  0
   26.7500   26.8800   32.4900 N   0  0  0  0  0  0  0  0  0  0  0  0
   23.0435   26.0660   36.1508 C   0  0  0  0  0  0  0  0  0  0  0  0
   22.1889   26.5551   35.1614 C   0  0  0  0  0  0  0  0  0  0  0  0
   20.8421   26.4499   35.5302 C   0  0  0  0  0  0  0  0  0  0  0  0
   19.6881   26.9156   34.7562 C   0  0  0  0  0  0  0  0  0  0  0  0
   19.8502   27.5207   33.6620 O   0  0  0  0  0  0  0  0  0  0  0  0
   18.3682   26.6910   35.2947 N   0  0  0  0  0  0  0  0  0  0  0  0
   17.2070   27.4065   34.7526 C   0  0  0  0  0  0  0  0  0  0  0  0
   17.2025   28.8552   35.2343 C   0  0  0  0  0  0  0  0  0  0  0  0
   16.0591   29.5079   34.7250 O   0  0  0  0  0  0  0  0  0  0  0  0
   16.0481   30.8448   35.1721 C   0  0  0  0  0  0  0  0  0  0  0  0
   18.1937   25.6895   36.3654 C   0  0  0  0  0  0  0  0  0  0  0  0
   19.2988   25.8046   37.4339 C   0  0  0  0  0  0  0  0  0  0  0  0
   20.6438   25.8897   36.7792 C   0  0  0  0  0  0  0  0  0  0  0  0
   22.1352   25.5508   37.4767 S   0  0  0  0  0  0  0  0  0  0  0  0
  1  2  1  0
  2  3  2  0
  2  4  1  0
  4  5  2  0
  5  6  1  0
  6  7  2  0
  7  8  1  0
  8  9  2  0
  9 10  1  0
 10 11  2  0
 11 12  1  0
 12 13  2  0
 13 14  1  0
  1 15  1  0
 15 16  2  0
 16 17  1  0
 17 18  1  0
 18 19  2  0
 18 20  1  0
 20 21  1  0
 21 22  1  0
 22 23  1  0
 23 24  1  0
 20 25  1  0
 25 26  1  0
 26 27  1  0
 27 28  1  0
 13  4  1  0
 28 15  1  0
 12  7  1  0
 27 17  2  0
M  END
>  <AAScore>  (1) 
4491.487122040045

>  <RootName>  (1) 
./4ZLY/04_DeltaGEst/trajectory_00/rank_00/lead_0379

$$$$
