confid_15
     RDKit          3D

 26 28  0  0  0  0  0  0  0  0999 V2000
   24.5500   26.3900   36.2500 N   0  0  0  0  0  0  0  0  0  0  0  0
   25.6000   26.1300   35.4000 C   0  0  0  0  0  0  0  0  0  0  0  0
   25.4300   25.4300   34.4200 O   0  0  0  0  0  0  0  0  0  0  0  0
   26.9800   26.6300   35.7100 C   0  0  0  0  0  0  0  0  0  0  0  0
   27.3200   26.8200   36.9800 N   0  0  0  0  0  0  0  0  0  0  0  0
   28.4700   27.4000   37.3100 N   0  0  0  0  0  0  0  0  0  0  0  0
   29.4000   27.6300   36.3700 C   0  0  0  0  0  0  0  0  0  0  0  0
   30.6600   28.0500   36.8000 C   0  0  0  0  0  0  0  0  0  0  0  0
   31.5700   28.3600   35.7800 C   0  0  0  0  0  0  0  0  0  0  0  0
   31.3700   28.1000   34.4300 C   0  0  0  0  0  0  0  0  0  0  0  0
   30.1200   27.5900   34.0500 C   0  0  0  0  0  0  0  0  0  0  0  0
   29.1500   27.3400   35.0300 C   0  0  0  0  0  0  0  0  0  0  0  0
   27.8800   26.8900   34.6600 C   0  0  0  0  0  0  0  0  0  0  0  0
   27.4800   26.6100   33.3700 N   0  0  0  0  0  0  0  0  0  0  0  0
   30.9608   28.2927   38.1810 N   0  0  0  0  0  0  0  0  0  0  0  0
   31.2148   27.1668   39.0809 C   0  0  0  0  0  0  0  0  0  0  0  0
   32.6940   26.9863   39.2781 C   0  0  0  0  0  0  0  0  0  0  0  0
   33.3175   27.4358   40.4542 C   0  0  0  0  0  0  0  0  0  0  0  0
   34.7005   27.3033   40.6120 C   0  0  0  0  0  0  0  0  0  0  0  0
   35.4695   26.7268   39.5973 C   0  0  0  0  0  0  0  0  0  0  0  0
   34.8568   26.2828   38.4222 C   0  0  0  0  0  0  0  0  0  0  0  0
   33.4742   26.4132   38.2605 C   0  0  0  0  0  0  0  0  0  0  0  0
   31.1126   29.9279   38.7509 S   0  0  0  0  0  6  0  0  0  0  0  0
   30.8457   29.9753   40.2293 O   0  0  0  0  0  0  0  0  0  0  0  0
   30.1029   30.7950   38.0529 O   0  0  0  0  0  0  0  0  0  0  0  0
   32.7490   30.5513   38.4312 C   0  0  0  0  0  0  0  0  0  0  0  0
  1  2  1  0
  2  3  2  0
  2  4  1  0
  4  5  2  0
  5  6  1  0
  6  7  2  0
  7  8  1  0
  8  9  2  0
  9 10  1  0
 10 11  2  0
 11 12  1  0
 12 13  2  0
 13 14  1  0
  8 15  1  0
 15 16  1  0
 16 17  1  0
 17 18  2  0
 18 19  1  0
 19 20  2  0
 20 21  1  0
 21 22  2  0
 15 23  1  0
 23 24  2  0
 23 25  2  0
 23 26  1  0
 13  4  1  0
 22 17  1  0
 12  7  1  0
M  END
>  <AAScore>  (1) 
229.02928807448512

>  <RootName>  (1) 
./4ZLY/04_DeltaGEst/trajectory_01/rank_01/lead_0332

$$$$
