confid_12
     RDKit          3D

 31 35  0  0  0  0  0  0  0  0999 V2000
   25.3300   26.2600   34.7600 N   0  0  0  0  0  0  0  0  0  0  0  0
   26.1200   25.9200   33.6900 C   0  0  0  0  0  0  0  0  0  0  0  0
   25.6300   25.1100   32.9400 O   0  0  0  0  0  0  0  0  0  0  0  0
   27.5200   26.3800   33.4600 C   0  0  0  0  0  0  0  0  0  0  0  0
   28.1600   26.6300   34.6100 N   0  0  0  0  0  0  0  0  0  0  0  0
   29.4800   26.8500   34.5700 N   0  0  0  0  0  0  0  0  0  0  0  0
   30.1900   26.7800   33.4400 C   0  0  0  0  0  0  0  0  0  0  0  0
   31.5600   27.0500   33.5000 C   0  0  0  0  0  0  0  0  0  0  0  0
   32.2700   27.2400   32.3100 C   0  0  0  0  0  0  0  0  0  0  0  0
   31.6100   27.2500   31.0800 C   0  0  0  0  0  0  0  0  0  0  0  0
   30.2700   26.8700   31.0600 C   0  0  0  0  0  0  0  0  0  0  0  0
   29.5100   26.6900   32.2300 C   0  0  0  0  0  0  0  0  0  0  0  0
   28.1400   26.4100   32.2000 C   0  0  0  0  0  0  0  0  0  0  0  0
   27.4300   26.1300   31.0500 N   0  0  0  0  0  0  0  0  0  0  0  0
   26.5127   27.1328   30.4970 C   0  0  0  0  0  0  0  0  0  0  0  0
   26.6407   27.1709   28.9712 C   0  0  0  0  0  0  0  0  0  0  0  0
   26.6107   25.8201   28.3892 N   0  0  0  0  0  0  0  0  0  0  0  0
   26.6686   25.6805   26.9562 C   0  0  0  0  0  0  0  0  0  0  0  0
   27.3304   26.5156   26.2813 O   0  0  0  0  0  0  0  0  0  0  0  0
   25.9647   24.5851   26.2506 C   0  0  0  0  0  0  0  0  0  0  0  0
   24.7354   24.0979   26.7163 C   0  0  0  0  0  0  0  0  0  0  0  0
   24.0954   23.1024   26.0499 N   0  0  0  0  0  0  0  0  0  0  0  0
   24.5968   22.5512   24.9120 C   0  0  0  0  0  0  0  0  0  0  0  0
   25.8354   23.0021   24.4062 C   0  0  0  0  0  0  0  0  0  0  0  0
   26.4985   24.0402   25.0743 C   0  0  0  0  0  0  0  0  0  0  0  0
   26.4021   22.4738   23.1094 C   0  0  0  0  0  0  0  0  0  0  0  0
   25.8033   21.1194   22.7164 C   0  0  0  0  0  0  0  0  0  0  0  0
   24.2787   21.1564   22.8280 C   0  0  0  0  0  0  0  0  0  0  0  0
   23.8547   21.4025   24.2794 C   0  0  0  0  0  0  0  0  0  0  0  0
   26.5823   24.6366   29.2623 C   0  0  0  0  0  0  0  0  0  0  0  0
   27.5699   24.8088   30.4201 C   0  0  0  0  0  0  0  0  0  0  0  0
  1  2  1  0
  2  3  2  0
  2  4  1  0
  4  5  2  0
  5  6  1  0
  6  7  2  0
  7  8  1  0
  8  9  2  0
  9 10  1  0
 10 11  2  0
 11 12  1  0
 12 13  2  0
 13 14  1  0
 14 15  1  0
 15 16  1  0
 16 17  1  0
 17 18  1  0
 18 19  2  0
 18 20  1  0
 20 21  2  0
 21 22  1  0
 22 23  2  0
 23 24  1  0
 24 25  2  0
 24 26  1  0
 26 27  1  0
 27 28  1  0
 28 29  1  0
 17 30  1  0
 30 31  1  0
 13  4  1  0
 31 14  1  0
 12  7  1  0
 25 20  1  0
 29 23  1  0
M  END
>  <AAScore>  (1) 
12.924685517136654

>  <RootName>  (1) 
./4ZLY/04_DeltaGEst/trajectory_03/rank_01/lead_0404

$$$$
