confid_14
     RDKit          3D

 26 28  0  0  0  0  0  0  0  0999 V2000
   24.5700   26.8800   35.5900 N   0  0  0  0  0  0  0  0  0  0  0  0
   25.5000   26.4000   34.6900 C   0  0  0  0  0  0  0  0  0  0  0  0
   25.1700   25.5200   33.9100 O   0  0  0  0  0  0  0  0  0  0  0  0
   26.8400   27.0200   34.7400 C   0  0  0  0  0  0  0  0  0  0  0  0
   27.3800   27.2800   35.9400 N   0  0  0  0  0  0  0  0  0  0  0  0
   28.6200   27.7400   36.0300 N   0  0  0  0  0  0  0  0  0  0  0  0
   29.3800   28.0000   34.9600 C   0  0  0  0  0  0  0  0  0  0  0  0
   30.6700   28.5000   35.1300 C   0  0  0  0  0  0  0  0  0  0  0  0
   31.5400   28.6100   34.0300 C   0  0  0  0  0  0  0  0  0  0  0  0
   31.0900   28.2200   32.7700 C   0  0  0  0  0  0  0  0  0  0  0  0
   29.8000   27.7000   32.6000 C   0  0  0  0  0  0  0  0  0  0  0  0
   28.9600   27.5500   33.7100 C   0  0  0  0  0  0  0  0  0  0  0  0
   27.6600   27.0300   33.5900 C   0  0  0  0  0  0  0  0  0  0  0  0
   27.1600   26.7400   32.3400 N   0  0  0  0  0  0  0  0  0  0  0  0
   33.1681   29.2537   34.2182 S   0  0  0  0  0  6  0  0  0  0  0  0
   33.4321   29.6171   35.6528 O   0  0  0  0  0  0  0  0  0  0  0  0
   34.1432   28.1907   33.7943 O   0  0  0  0  0  0  0  0  0  0  0  0
   33.3536   30.6714   33.2257 N   0  0  0  0  0  0  0  0  0  0  0  0
   32.2650   31.6465   33.1662 C   0  0  0  0  0  0  0  0  0  0  0  0
   34.5747   30.9006   32.4974 C   0  0  0  0  0  0  0  0  0  0  0  0
   34.5379   31.3672   31.1725 C   0  0  0  0  0  0  0  0  0  0  0  0
   35.7236   31.5816   30.4654 C   0  0  0  0  0  0  0  0  0  0  0  0
   36.9582   31.3445   31.0743 C   0  0  0  0  0  0  0  0  0  0  0  0
   37.0147   30.9040   32.4042 C   0  0  0  0  0  0  0  0  0  0  0  0
   38.3378   30.6168   33.0507 C   0  0  0  0  0  0  0  0  0  0  0  0
   35.8217   30.6717   33.1065 C   0  0  0  0  0  0  0  0  0  0  0  0
  1  2  1  0
  2  3  2  0
  2  4  1  0
  4  5  2  0
  5  6  1  0
  6  7  2  0
  7  8  1  0
  8  9  2  0
  9 10  1  0
 10 11  2  0
 11 12  1  0
 12 13  2  0
 13 14  1  0
  9 15  1  0
 15 16  2  0
 15 17  2  0
 15 18  1  0
 18 19  1  0
 18 20  1  0
 20 21  2  0
 21 22  1  0
 22 23  2  0
 23 24  1  0
 24 25  1  0
 24 26  2  0
 13  4  1  0
 26 20  1  0
 12  7  1  0
M  END
>  <AAScore>  (1) 
-5.761118257511555

>  <RootName>  (1) 
./4ZLY/04_DeltaGEst/trajectory_05/rank_01/lead_0335

$$$$
