confid_15
     RDKit          3D

 28 31  0  0  0  0  0  0  0  0999 V2000
   25.3300   26.2600   34.7600 N   0  0  0  0  0  0  0  0  0  0  0  0
   26.1200   25.9200   33.6900 C   0  0  0  0  0  0  0  0  0  0  0  0
   25.6300   25.1100   32.9400 O   0  0  0  0  0  0  0  0  0  0  0  0
   27.5200   26.3800   33.4600 C   0  0  0  0  0  0  0  0  0  0  0  0
   28.1600   26.6300   34.6100 N   0  0  0  0  0  0  0  0  0  0  0  0
   29.4800   26.8500   34.5700 N   0  0  0  0  0  0  0  0  0  0  0  0
   30.1900   26.7800   33.4400 C   0  0  0  0  0  0  0  0  0  0  0  0
   31.5600   27.0500   33.5000 C   0  0  0  0  0  0  0  0  0  0  0  0
   32.2700   27.2400   32.3100 C   0  0  0  0  0  0  0  0  0  0  0  0
   31.6100   27.2500   31.0800 C   0  0  0  0  0  0  0  0  0  0  0  0
   30.2700   26.8700   31.0600 C   0  0  0  0  0  0  0  0  0  0  0  0
   29.5100   26.6900   32.2300 C   0  0  0  0  0  0  0  0  0  0  0  0
   28.1400   26.4100   32.2000 C   0  0  0  0  0  0  0  0  0  0  0  0
   27.4300   26.1300   31.0500 N   0  0  0  0  0  0  0  0  0  0  0  0
   24.2219   25.4741   35.2546 C   0  0  0  0  0  0  0  0  0  0  0  0
   24.1944   24.1394   35.0080 N   0  0  0  0  0  0  0  0  0  0  0  0
   23.2129   23.3292   35.4656 C   0  0  0  0  0  0  0  0  0  0  0  0
   22.1580   23.8373   36.2325 C   0  0  0  0  0  0  0  0  0  0  0  0
   21.0941   22.8241   36.6578 C   0  0  0  0  0  0  0  0  0  0  0  0
   20.0847   23.3137   37.6224 N   0  0  0  0  0  0  0  0  0  0  0  0
   19.1636   22.2230   37.9799 C   0  0  0  0  0  0  0  0  0  0  0  0
   20.7108   23.8936   38.8297 C   0  0  0  0  0  0  0  0  0  0  0  0
   20.7612   25.4143   38.6868 C   0  0  0  0  0  0  0  0  0  0  0  0
   21.0158   25.8231   37.2656 C   0  0  0  0  0  0  0  0  0  0  0  0
   20.2602   26.6691   36.7155 O   0  0  0  0  0  0  0  0  0  0  0  0
   22.1330   25.2340   36.5012 C   0  0  0  0  0  0  0  0  0  0  0  0
   23.1900   26.0608   36.0256 C   0  0  0  0  0  0  0  0  0  0  0  0
   23.2641   27.5382   36.3534 C   0  0  0  0  0  0  0  0  0  0  0  0
  1  2  1  0
  2  3  2  0
  2  4  1  0
  4  5  2  0
  5  6  1  0
  6  7  2  0
  7  8  1  0
  8  9  2  0
  9 10  1  0
 10 11  2  0
 11 12  1  0
 12 13  2  0
 13 14  1  0
  1 15  1  0
 15 16  2  0
 16 17  1  0
 17 18  2  0
 18 19  1  0
 19 20  1  0
 20 21  1  0
 20 22  1  0
 22 23  1  0
 23 24  1  0
 24 25  2  0
 24 26  1  0
 26 27  2  0
 27 28  1  0
 13  4  1  0
 27 15  1  0
 12  7  1  0
 26 18  1  0
M  END
>  <AAScore>  (1) 
2859.475702658414

>  <RootName>  (1) 
./4ZLY/04_DeltaGEst/trajectory_03/rank_00/lead_0139

$$$$
