confid_15
     RDKit          3D

 29 32  0  0  0  0  0  0  0  0999 V2000
   24.2000   26.2400   35.6900 N   0  0  0  0  0  0  0  0  0  0  0  0
   24.8500   26.2800   34.4800 C   0  0  0  0  0  0  0  0  0  0  0  0
   24.3100   25.7400   33.5400 O   0  0  0  0  0  0  0  0  0  0  0  0
   26.1800   26.9700   34.4700 C   0  0  0  0  0  0  0  0  0  0  0  0
   26.6500   27.6000   35.5500 N   0  0  0  0  0  0  0  0  0  0  0  0
   27.7900   28.2700   35.6200 N   0  0  0  0  0  0  0  0  0  0  0  0
   28.5400   28.3000   34.5100 C   0  0  0  0  0  0  0  0  0  0  0  0
   29.7700   28.9400   34.5600 C   0  0  0  0  0  0  0  0  0  0  0  0
   30.7000   28.8900   33.5000 C   0  0  0  0  0  0  0  0  0  0  0  0
   30.3700   28.1400   32.3700 C   0  0  0  0  0  0  0  0  0  0  0  0
   29.1200   27.5200   32.2800 C   0  0  0  0  0  0  0  0  0  0  0  0
   28.2100   27.6100   33.3300 C   0  0  0  0  0  0  0  0  0  0  0  0
   26.9700   26.9700   33.3100 C   0  0  0  0  0  0  0  0  0  0  0  0
   26.5300   26.2400   32.2200 N   0  0  0  0  0  0  0  0  0  0  0  0
   30.1446   29.6680   35.7425 N   0  0  0  0  0  0  0  0  0  0  0  0
   31.2830   29.2269   36.5564 C   0  0  0  0  0  0  0  0  0  0  0  0
   31.9929   30.4352   37.1802 C   0  0  0  0  0  0  0  0  0  0  0  0
   31.8783   31.5875   36.2670 N   0  0  0  0  0  0  0  0  0  0  0  0
   32.8097   32.6663   36.6549 C   0  0  0  0  0  0  0  0  0  0  0  0
   32.9021   33.7112   35.5626 C   0  0  0  0  0  0  0  0  0  0  0  0
   32.2722   34.9537   35.7584 C   0  0  0  0  0  0  0  0  0  0  0  0
   32.2966   35.9290   34.7614 C   0  0  0  0  0  0  0  0  0  0  0  0
   32.9595   35.6826   33.5619 C   0  0  0  0  0  0  0  0  0  0  0  0
   33.5935   34.4574   33.3444 C   0  0  0  0  0  0  0  0  0  0  0  0
   34.2402   34.2593   32.1666 F   0  0  0  0  0  0  0  0  0  0  0  0
   33.5574   33.4501   34.3298 C   0  0  0  0  0  0  0  0  0  0  0  0
   34.2519   32.1336   34.0771 C   0  0  0  0  0  0  0  0  0  0  0  0
   30.4782   32.0721   36.2062 C   0  0  0  0  0  0  0  0  0  0  0  0
   29.4619   30.9161   36.0921 C   0  0  0  0  0  0  0  0  0  0  0  0
  1  2  1  0
  2  3  2  0
  2  4  1  0
  4  5  2  0
  5  6  1  0
  6  7  2  0
  7  8  1  0
  8  9  2  0
  9 10  1  0
 10 11  2  0
 11 12  1  0
 12 13  2  0
 13 14  1  0
  8 15  1  0
 15 16  1  0
 16 17  1  0
 17 18  1  0
 18 19  1  0
 19 20  1  0
 20 21  2  0
 21 22  1  0
 22 23  2  0
 23 24  1  0
 24 25  1  0
 24 26  2  0
 26 27  1  0
 18 28  1  0
 28 29  1  0
 13  4  1  0
 29 15  1  0
 12  7  1  0
 26 20  1  0
M  END
>  <AAScore>  (1) 
-8.521667704401295

>  <RootName>  (1) 
./4ZLY/04_DeltaGEst/trajectory_04/rank_01/lead_0173

$$$$
