confid_2
     RDKit          3D

 29 33  0  0  0  0  0  0  0  0999 V2000
   24.6900   26.1200   35.5300 N   0  0  0  0  0  0  0  0  0  0  0  0
   25.6600   25.6700   34.6600 C   0  0  0  0  0  0  0  0  0  0  0  0
   25.2400   25.0100   33.7200 O   0  0  0  0  0  0  0  0  0  0  0  0
   27.0300   26.2200   34.8800 C   0  0  0  0  0  0  0  0  0  0  0  0
   27.3500   26.7300   36.0700 N   0  0  0  0  0  0  0  0  0  0  0  0
   28.5700   27.1800   36.3300 N   0  0  0  0  0  0  0  0  0  0  0  0
   29.5300   27.1100   35.3900 C   0  0  0  0  0  0  0  0  0  0  0  0
   30.8300   27.5700   35.6500 C   0  0  0  0  0  0  0  0  0  0  0  0
   31.8500   27.5400   34.6900 C   0  0  0  0  0  0  0  0  0  0  0  0
   31.5100   27.1200   33.4000 C   0  0  0  0  0  0  0  0  0  0  0  0
   30.2200   26.6300   33.1100 C   0  0  0  0  0  0  0  0  0  0  0  0
   29.2400   26.6600   34.1000 C   0  0  0  0  0  0  0  0  0  0  0  0
   27.9300   26.2600   33.8100 C   0  0  0  0  0  0  0  0  0  0  0  0
   27.5200   25.7100   32.6100 N   0  0  0  0  0  0  0  0  0  0  0  0
   23.2831   26.2475   35.2360 C   0  0  0  0  0  0  0  0  0  0  0  0
   22.7876   25.8336   34.0973 N   0  0  0  0  0  0  0  0  0  0  0  0
   21.3995   25.9783   33.7749 C   0  0  0  0  0  0  0  0  0  0  0  0
   20.9449   27.1914   33.4885 C   0  0  0  0  0  0  0  0  0  0  0  0
   19.6804   27.9967   33.5644 C   0  0  0  0  0  0  0  0  0  0  0  0
   20.2988   29.2216   33.3069 O   0  0  0  0  0  0  0  0  0  0  0  0
   21.4927   28.5334   33.1126 C   0  0  1  0  0  0  0  0  0  0  0  0
   22.6734   29.0326   33.9681 C   0  0  0  0  0  0  0  0  0  0  0  0
   22.4518   29.2027   35.4840 C   0  0  0  0  0  0  0  0  0  0  0  0
   21.8845   28.0379   36.2839 C   0  0  0  0  0  0  0  0  0  0  0  0
   22.3827   26.7789   36.2838 C   0  0  0  0  0  0  0  0  0  0  0  0
   21.9473   25.8775   37.2591 O   0  0  0  0  0  0  0  0  0  0  0  0
   21.0776   26.2944   38.3050 C   0  0  0  0  0  0  0  0  0  0  0  0
   20.1521   27.2353   37.8058 O   0  0  0  0  0  0  0  0  0  0  0  0
   20.8509   28.3764   37.3403 C   0  0  0  0  0  0  0  0  0  0  0  0
  1  2  1  0
  2  3  2  0
  2  4  1  0
  4  5  2  0
  5  6  1  0
  6  7  2  0
  7  8  1  0
  8  9  2  0
  9 10  1  0
 10 11  2  0
 11 12  1  0
 12 13  2  0
 13 14  1  0
  1 15  1  0
 15 16  2  0
 16 17  1  0
 17 18  2  0
 18 19  1  0
 19 20  1  0
 20 21  1  0
 21 22  1  1
 22 23  1  0
 23 24  1  0
 24 25  2  0
 25 26  1  0
 26 27  1  0
 27 28  1  0
 28 29  1  0
 13  4  1  0
 25 15  1  0
 12  7  1  0
 21 18  1  0
 29 24  1  0
M  END
>  <AAScore>  (1) 
40277.0344515415

>  <RootName>  (1) 
./4ZLY/04_DeltaGEst/trajectory_02/rank_00/lead_0415

$$$$
