confid_6
     RDKit          3D

 27 30  0  0  0  0  0  0  0  0999 V2000
   24.2000   26.2400   35.6900 N   0  0  0  0  0  0  0  0  0  0  0  0
   24.8500   26.2800   34.4800 C   0  0  0  0  0  0  0  0  0  0  0  0
   24.3100   25.7400   33.5400 O   0  0  0  0  0  0  0  0  0  0  0  0
   26.1800   26.9700   34.4700 C   0  0  0  0  0  0  0  0  0  0  0  0
   26.6500   27.6000   35.5500 N   0  0  0  0  0  0  0  0  0  0  0  0
   27.7900   28.2700   35.6200 N   0  0  0  0  0  0  0  0  0  0  0  0
   28.5400   28.3000   34.5100 C   0  0  0  0  0  0  0  0  0  0  0  0
   29.7700   28.9400   34.5600 C   0  0  0  0  0  0  0  0  0  0  0  0
   30.7000   28.8900   33.5000 C   0  0  0  0  0  0  0  0  0  0  0  0
   30.3700   28.1400   32.3700 C   0  0  0  0  0  0  0  0  0  0  0  0
   29.1200   27.5200   32.2800 C   0  0  0  0  0  0  0  0  0  0  0  0
   28.2100   27.6100   33.3300 C   0  0  0  0  0  0  0  0  0  0  0  0
   26.9700   26.9700   33.3100 C   0  0  0  0  0  0  0  0  0  0  0  0
   26.5300   26.2400   32.2200 N   0  0  0  0  0  0  0  0  0  0  0  0
   22.7749   26.0609   35.8582 C   0  0  0  0  0  0  0  0  0  0  0  0
   21.9761   25.8530   34.7736 N   0  0  0  0  0  0  0  0  0  0  0  0
   20.6368   25.6649   34.8769 C   0  0  0  0  0  0  0  0  0  0  0  0
   20.0215   25.6763   36.1310 C   0  0  0  0  0  0  0  0  0  0  0  0
   18.5246   25.5239   36.2468 C   0  0  0  0  0  0  0  0  0  0  0  0
   18.1276   25.1383   37.5510 O   0  0  0  0  0  0  0  0  0  0  0  0
   18.6087   26.0747   38.4948 C   0  0  0  0  0  0  0  0  0  0  0  0
   20.1302   25.9520   38.6310 C   0  0  0  0  0  0  0  0  0  0  0  0
   20.7975   25.9299   37.2760 C   0  0  0  0  0  0  0  0  0  0  0  0
   22.1920   26.1053   37.1447 C   0  0  0  0  0  0  0  0  0  0  0  0
   23.0087   26.3544   38.3007 N   0  0  0  0  0  0  0  0  0  0  0  0
   23.3604   27.7273   38.6578 C   0  0  0  0  0  0  0  0  0  0  0  0
   23.3145   25.2711   39.2319 C   0  0  0  0  0  0  0  0  0  0  0  0
  1  2  1  0
  2  3  2  0
  2  4  1  0
  4  5  2  0
  5  6  1  0
  6  7  2  0
  7  8  1  0
  8  9  2  0
  9 10  1  0
 10 11  2  0
 11 12  1  0
 12 13  2  0
 13 14  1  0
  1 15  1  0
 15 16  2  0
 16 17  1  0
 17 18  2  0
 18 19  1  0
 19 20  1  0
 20 21  1  0
 21 22  1  0
 22 23  1  0
 23 24  2  0
 24 25  1  0
 25 26  1  0
 25 27  1  0
 13  4  1  0
 24 15  1  0
 12  7  1  0
 23 18  1  0
M  END
>  <AAScore>  (1) 
461.86995953684175

>  <RootName>  (1) 
./4ZLY/04_DeltaGEst/trajectory_04/rank_00/lead_0373

$$$$
