confid_19
     RDKit          3D

 30 34  0  0  0  0  0  0  0  0999 V2000
   25.3300   26.2600   34.7600 N   0  0  0  0  0  0  0  0  0  0  0  0
   26.1200   25.9200   33.6900 C   0  0  0  0  0  0  0  0  0  0  0  0
   25.6300   25.1100   32.9400 O   0  0  0  0  0  0  0  0  0  0  0  0
   27.5200   26.3800   33.4600 C   0  0  0  0  0  0  0  0  0  0  0  0
   28.1600   26.6300   34.6100 N   0  0  0  0  0  0  0  0  0  0  0  0
   29.4800   26.8500   34.5700 N   0  0  0  0  0  0  0  0  0  0  0  0
   30.1900   26.7800   33.4400 C   0  0  0  0  0  0  0  0  0  0  0  0
   31.5600   27.0500   33.5000 C   0  0  0  0  0  0  0  0  0  0  0  0
   32.2700   27.2400   32.3100 C   0  0  0  0  0  0  0  0  0  0  0  0
   31.6100   27.2500   31.0800 C   0  0  0  0  0  0  0  0  0  0  0  0
   30.2700   26.8700   31.0600 C   0  0  0  0  0  0  0  0  0  0  0  0
   29.5100   26.6900   32.2300 C   0  0  0  0  0  0  0  0  0  0  0  0
   28.1400   26.4100   32.2000 C   0  0  0  0  0  0  0  0  0  0  0  0
   27.4300   26.1300   31.0500 N   0  0  0  0  0  0  0  0  0  0  0  0
   23.9025   26.0553   34.8371 C   0  0  0  0  0  0  0  0  0  0  0  0
   23.2211   26.0193   33.7218 N   0  0  0  0  0  0  0  0  0  0  0  0
   21.8466   25.7763   33.3785 C   0  0  0  0  0  0  0  0  0  0  0  0
   21.0606   24.9367   34.0446 C   0  0  0  0  0  0  0  0  0  0  0  0
   20.0427   23.8973   33.6660 C   0  0  0  0  0  0  0  0  0  0  0  0
   20.0406   23.2668   34.9060 O   0  0  0  0  0  0  0  0  0  0  0  0
   20.8823   24.2706   35.3712 C   0  0  1  0  0  0  0  0  0  0  0  0
   22.2045   23.7708   35.9509 C   0  0  0  0  0  0  0  0  0  0  0  0
   22.7413   24.8991   36.7900 C   0  0  0  0  0  0  0  0  0  0  0  0
   22.4311   24.9078   38.1641 C   0  0  0  0  0  0  0  0  0  0  0  0
   22.6879   26.0408   38.9562 C   0  0  0  0  0  0  0  0  0  0  0  0
   22.4174   26.0758   40.3324 O   0  0  0  0  0  0  0  0  0  0  0  0
   21.8437   24.9980   41.0668 C   0  0  0  0  0  0  0  0  0  0  0  0
   23.2282   27.1796   38.3582 C   0  0  0  0  0  0  0  0  0  0  0  0
   23.5297   27.1902   36.9975 C   0  0  0  0  0  0  0  0  0  0  0  0
   23.2964   26.0591   36.1940 C   0  0  0  0  0  0  0  0  0  0  0  0
  1  2  1  0
  2  3  2  0
  2  4  1  0
  4  5  2  0
  5  6  1  0
  6  7  2  0
  7  8  1  0
  8  9  2  0
  9 10  1  0
 10 11  2  0
 11 12  1  0
 12 13  2  0
 13 14  1  0
  1 15  1  0
 15 16  2  0
 16 17  1  0
 17 18  2  0
 18 19  1  0
 19 20  1  0
 20 21  1  0
 21 22  1  6
 22 23  1  0
 23 24  2  0
 24 25  1  0
 25 26  1  0
 26 27  1  0
 25 28  2  0
 28 29  1  0
 29 30  2  0
 13  4  1  0
 30 15  1  0
 12  7  1  0
 21 18  1  0
 30 23  1  0
M  END
>  <AAScore>  (1) 
3101.852865292332

>  <RootName>  (1) 
./4ZLY/04_DeltaGEst/trajectory_03/rank_00/lead_0108

$$$$
