confid_8
     RDKit          3D

 29 34  0  0  0  0  0  0  0  0999 V2000
   25.3300   26.2600   34.7600 N   0  0  0  0  0  0  0  0  0  0  0  0
   26.1200   25.9200   33.6900 C   0  0  0  0  0  0  0  0  0  0  0  0
   25.6300   25.1100   32.9400 O   0  0  0  0  0  0  0  0  0  0  0  0
   27.5200   26.3800   33.4600 C   0  0  0  0  0  0  0  0  0  0  0  0
   28.1600   26.6300   34.6100 N   0  0  0  0  0  0  0  0  0  0  0  0
   29.4800   26.8500   34.5700 N   0  0  0  0  0  0  0  0  0  0  0  0
   30.1900   26.7800   33.4400 C   0  0  0  0  0  0  0  0  0  0  0  0
   31.5600   27.0500   33.5000 C   0  0  0  0  0  0  0  0  0  0  0  0
   32.2700   27.2400   32.3100 C   0  0  0  0  0  0  0  0  0  0  0  0
   31.6100   27.2500   31.0800 C   0  0  0  0  0  0  0  0  0  0  0  0
   30.2700   26.8700   31.0600 C   0  0  0  0  0  0  0  0  0  0  0  0
   29.5100   26.6900   32.2300 C   0  0  0  0  0  0  0  0  0  0  0  0
   28.1400   26.4100   32.2000 C   0  0  0  0  0  0  0  0  0  0  0  0
   27.4300   26.1300   31.0500 N   0  0  0  0  0  0  0  0  0  0  0  0
   23.9274   25.9621   34.9200 C   0  0  0  0  0  0  0  0  0  0  0  0
   23.2227   25.6213   33.8761 N   0  0  0  0  0  0  0  0  0  0  0  0
   21.8373   25.2809   33.7488 C   0  0  0  0  0  0  0  0  0  0  0  0
   20.8736   26.0291   34.2660 C   0  0  0  0  0  0  0  0  0  0  0  0
   19.4014   26.2389   34.0699 C   0  0  0  0  0  0  0  0  0  0  0  0
   19.3148   27.3240   34.9357 O   0  0  0  0  0  0  0  0  0  0  0  0
   20.6712   27.1720   35.2137 C   0  0  1  0  0  0  0  0  0  0  0  0
   20.8601   26.7550   36.6722 C   0  0  0  0  0  0  0  0  0  0  0  0
   22.2331   26.2486   36.9653 C   0  0  0  0  0  0  0  0  0  0  0  0
   23.4131   25.9352   36.3051 C   0  0  0  0  0  0  0  0  0  0  0  0
   24.0970   25.5939   37.5584 N   0  0  0  0  0  0  0  0  0  0  0  0
   25.4394   25.2028   37.9653 C   0  0  0  0  0  0  0  0  0  0  0  0
   25.4918   23.8959   38.7354 C   0  0  0  0  0  0  0  0  0  0  0  0
   25.9238   23.9388   37.2778 C   0  0  0  0  0  0  0  0  0  0  0  0
   22.8839   25.8860   38.1809 C   0  0  0  0  0  0  0  0  0  0  0  0
  1  2  1  0
  2  3  2  0
  2  4  1  0
  4  5  2  0
  5  6  1  0
  6  7  2  0
  7  8  1  0
  8  9  2  0
  9 10  1  0
 10 11  2  0
 11 12  1  0
 12 13  2  0
 13 14  1  0
  1 15  1  0
 15 16  2  0
 16 17  1  0
 17 18  2  0
 18 19  1  0
 19 20  1  0
 20 21  1  0
 21 22  1  1
 22 23  1  0
 23 24  2  0
 24 25  1  0
 25 26  1  0
 26 27  1  0
 27 28  1  0
 25 29  1  0
 13  4  1  0
 24 15  1  0
 28 26  1  0
 12  7  1  0
 21 18  1  0
 29 23  1  0
M  END
>  <AAScore>  (1) 
265.667141090272

>  <RootName>  (1) 
./4ZLY/04_DeltaGEst/trajectory_03/rank_00/lead_0366

$$$$
