confid_6
     RDKit          3D

 30 34  0  0  0  0  0  0  0  0999 V2000
   25.3300   26.2600   34.7600 N   0  0  0  0  0  0  0  0  0  0  0  0
   26.1200   25.9200   33.6900 C   0  0  0  0  0  0  0  0  0  0  0  0
   25.6300   25.1100   32.9400 O   0  0  0  0  0  0  0  0  0  0  0  0
   27.5200   26.3800   33.4600 C   0  0  0  0  0  0  0  0  0  0  0  0
   28.1600   26.6300   34.6100 N   0  0  0  0  0  0  0  0  0  0  0  0
   29.4800   26.8500   34.5700 N   0  0  0  0  0  0  0  0  0  0  0  0
   30.1900   26.7800   33.4400 C   0  0  0  0  0  0  0  0  0  0  0  0
   31.5600   27.0500   33.5000 C   0  0  0  0  0  0  0  0  0  0  0  0
   32.2700   27.2400   32.3100 C   0  0  0  0  0  0  0  0  0  0  0  0
   31.6100   27.2500   31.0800 C   0  0  0  0  0  0  0  0  0  0  0  0
   30.2700   26.8700   31.0600 C   0  0  0  0  0  0  0  0  0  0  0  0
   29.5100   26.6900   32.2300 C   0  0  0  0  0  0  0  0  0  0  0  0
   28.1400   26.4100   32.2000 C   0  0  0  0  0  0  0  0  0  0  0  0
   27.4300   26.1300   31.0500 N   0  0  0  0  0  0  0  0  0  0  0  0
   24.0397   25.6876   35.0528 C   0  0  0  0  0  0  0  0  0  0  0  0
   23.2351   25.1215   34.1274 N   0  0  0  0  0  0  0  0  0  0  0  0
   22.1724   24.6926   34.8408 C   0  0  0  0  0  0  0  0  0  0  0  0
   21.0431   23.8938   34.2455 C   0  0  0  0  0  0  0  0  0  0  0  0
   20.7145   22.6875   35.0387 N   0  0  0  0  0  0  0  0  0  0  0  0
   19.4851   21.9726   34.7786 C   0  0  0  0  0  0  0  0  0  0  0  0
   19.3231   20.8081   35.2382 O   0  0  0  0  0  0  0  0  0  0  0  0
   18.3882   22.5827   33.9453 C   0  0  0  0  0  0  0  0  0  0  0  0
   17.5553   23.6167   34.6910 C   0  0  0  0  0  0  0  0  0  0  0  0
   16.9656   22.2527   34.3801 C   0  0  0  0  0  0  0  0  0  0  0  0
   21.6317   22.1991   36.0890 C   0  0  0  0  0  0  0  0  0  0  0  0
   21.4611   22.9913   37.3991 C   0  0  0  0  0  0  0  0  0  0  0  0
   21.3461   24.5122   37.1962 C   0  0  0  0  0  0  0  0  0  0  0  0
   22.2708   24.9752   36.1581 N   0  0  0  0  0  0  0  0  0  0  0  0
   23.4594   25.5920   36.3071 C   0  0  0  0  0  0  0  0  0  0  0  0
   24.0519   25.9991   37.6230 C   0  0  0  0  0  0  0  0  0  0  0  0
  1  2  1  0
  2  3  2  0
  2  4  1  0
  4  5  2  0
  5  6  1  0
  6  7  2  0
  7  8  1  0
  8  9  2  0
  9 10  1  0
 10 11  2  0
 11 12  1  0
 12 13  2  0
 13 14  1  0
  1 15  1  0
 15 16  1  0
 16 17  2  0
 17 18  1  0
 18 19  1  0
 19 20  1  0
 20 21  2  0
 20 22  1  0
 22 23  1  0
 23 24  1  0
 19 25  1  0
 25 26  1  0
 26 27  1  0
 27 28  1  0
 28 29  1  0
 29 30  1  0
 13  4  1  0
 29 15  2  0
 12  7  1  0
 28 17  1  0
 24 22  1  0
M  END
>  <AAScore>  (1) 
17300.03605201588

>  <RootName>  (1) 
./4ZLY/04_DeltaGEst/trajectory_03/rank_00/lead_0274

$$$$
