confid_6
     RDKit          3D

 28 32  0  0  0  0  0  0  0  0999 V2000
   24.4800   26.1000   36.1300 N   0  0  0  0  0  0  0  0  0  0  0  0
   25.2500   26.2500   34.9900 C   0  0  0  0  0  0  0  0  0  0  0  0
   24.7400   25.7600   33.9900 O   0  0  0  0  0  0  0  0  0  0  0  0
   26.5900   26.8900   34.9600 C   0  0  0  0  0  0  0  0  0  0  0  0
   27.0600   27.2400   36.1600 N   0  0  0  0  0  0  0  0  0  0  0  0
   28.3000   27.7100   36.2400 N   0  0  0  0  0  0  0  0  0  0  0  0
   29.0500   27.9600   35.1500 C   0  0  0  0  0  0  0  0  0  0  0  0
   30.3400   28.4900   35.2600 C   0  0  0  0  0  0  0  0  0  0  0  0
   31.1100   28.8200   34.1400 C   0  0  0  0  0  0  0  0  0  0  0  0
   30.5200   28.6700   32.8800 C   0  0  0  0  0  0  0  0  0  0  0  0
   29.2900   28.0200   32.7700 C   0  0  0  0  0  0  0  0  0  0  0  0
   28.5200   27.7100   33.8900 C   0  0  0  0  0  0  0  0  0  0  0  0
   27.2700   27.0800   33.7600 C   0  0  0  0  0  0  0  0  0  0  0  0
   26.7500   26.8800   32.4900 N   0  0  0  0  0  0  0  0  0  0  0  0
   23.0930   25.7005   36.1716 C   0  0  0  0  0  0  0  0  0  0  0  0
   22.3558   25.4230   35.0679 N   0  0  0  0  0  0  0  0  0  0  0  0
   21.1437   25.1154   35.5691 C   0  0  0  0  0  0  0  0  0  0  0  0
   19.9143   24.8461   34.7680 C   0  0  0  0  0  0  0  0  0  0  0  0
   18.8740   24.1969   35.5890 N   0  0  0  0  0  0  0  0  0  0  0  0
   18.8576   24.3143   37.0354 C   0  0  0  0  0  0  0  0  0  0  0  0
   17.9246   23.7873   37.6995 O   0  0  0  0  0  0  0  0  0  0  0  0
   19.9335   25.0600   37.7837 C   0  0  0  0  0  0  0  0  0  0  0  0
   21.1503   25.2248   36.9303 C   0  0  0  0  0  0  0  0  0  0  0  0
   22.3809   25.6043   37.3219 N   0  0  0  0  0  0  0  0  0  0  0  0
   22.8462   25.8900   38.6779 C   0  0  0  0  0  0  0  0  0  0  0  0
   17.9206   23.2907   34.9361 C   0  0  0  0  0  0  0  0  0  0  0  0
   17.2190   23.8584   33.7081 C   0  0  0  0  0  0  0  0  0  0  0  0
   16.4752   23.7611   35.0279 C   0  0  0  0  0  0  0  0  0  0  0  0
  1  2  1  0
  2  3  2  0
  2  4  1  0
  4  5  2  0
  5  6  1  0
  6  7  2  0
  7  8  1  0
  8  9  2  0
  9 10  1  0
 10 11  2  0
 11 12  1  0
 12 13  2  0
 13 14  1  0
  1 15  1  0
 15 16  2  0
 16 17  1  0
 17 18  1  0
 18 19  1  0
 19 20  1  0
 20 21  2  0
 20 22  1  0
 22 23  1  0
 23 24  1  0
 24 25  1  0
 19 26  1  0
 26 27  1  0
 27 28  1  0
 13  4  1  0
 24 15  1  0
 28 26  1  0
 12  7  1  0
 23 17  2  0
M  END
>  <AAScore>  (1) 
1451.994674789343

>  <RootName>  (1) 
./4ZLY/04_DeltaGEst/trajectory_00/rank_01/lead_0414

$$$$
