confid_3
     RDKit          3D

 25 27  0  0  0  0  0  0  0  0999 V2000
   24.5700   26.8800   35.5900 N   0  0  0  0  0  0  0  0  0  0  0  0
   25.5000   26.4000   34.6900 C   0  0  0  0  0  0  0  0  0  0  0  0
   25.1700   25.5200   33.9100 O   0  0  0  0  0  0  0  0  0  0  0  0
   26.8400   27.0200   34.7400 C   0  0  0  0  0  0  0  0  0  0  0  0
   27.3800   27.2800   35.9400 N   0  0  0  0  0  0  0  0  0  0  0  0
   28.6200   27.7400   36.0300 N   0  0  0  0  0  0  0  0  0  0  0  0
   29.3800   28.0000   34.9600 C   0  0  0  0  0  0  0  0  0  0  0  0
   30.6700   28.5000   35.1300 C   0  0  0  0  0  0  0  0  0  0  0  0
   31.5400   28.6100   34.0300 C   0  0  0  0  0  0  0  0  0  0  0  0
   31.0900   28.2200   32.7700 C   0  0  0  0  0  0  0  0  0  0  0  0
   29.8000   27.7000   32.6000 C   0  0  0  0  0  0  0  0  0  0  0  0
   28.9600   27.5500   33.7100 C   0  0  0  0  0  0  0  0  0  0  0  0
   27.6600   27.0300   33.5900 C   0  0  0  0  0  0  0  0  0  0  0  0
   27.1600   26.7400   32.3400 N   0  0  0  0  0  0  0  0  0  0  0  0
   32.9206   29.1157   34.2267 C   0  0  0  0  0  0  0  0  0  0  0  0
   33.5118   28.8612   35.3117 O   0  0  0  0  0  0  0  0  0  0  0  0
   33.6308   29.9101   33.1947 C   0  0  0  0  0  0  0  0  0  0  0  0
   32.9331   30.7970   32.3577 C   0  0  0  0  0  0  0  0  0  0  0  0
   33.6140   31.5532   31.4003 C   0  0  0  0  0  0  0  0  0  0  0  0
   35.0112   31.4451   31.2685 C   0  0  0  0  0  0  0  0  0  0  0  0
   35.7307   32.1863   30.3176 O   0  0  0  0  0  0  0  0  0  0  0  0
   35.1453   33.1046   29.4003 C   0  0  0  0  0  0  0  0  0  0  0  0
   35.7108   30.5719   32.1150 C   0  0  0  0  0  0  0  0  0  0  0  0
   35.0266   29.8159   33.0734 C   0  0  0  0  0  0  0  0  0  0  0  0
   37.4562   30.4145   31.9852 Cl  0  0  0  0  0  0  0  0  0  0  0  0
  1  2  1  0
  2  3  2  0
  2  4  1  0
  4  5  2  0
  5  6  1  0
  6  7  2  0
  7  8  1  0
  8  9  2  0
  9 10  1  0
 10 11  2  0
 11 12  1  0
 12 13  2  0
 13 14  1  0
  9 15  1  0
 15 16  2  0
 15 17  1  0
 17 18  2  0
 18 19  1  0
 19 20  2  0
 20 21  1  0
 21 22  1  0
 20 23  1  0
 23 24  2  0
 23 25  1  0
 13  4  1  0
 24 17  1  0
 12  7  1  0
M  END
>  <AAScore>  (1) 
-5.452082284709362

>  <RootName>  (1) 
./4ZLY/04_DeltaGEst/trajectory_05/rank_01/lead_0080

$$$$
