confid_17
     RDKit          3D

 29 32  0  0  0  0  0  0  0  0999 V2000
   25.3300   26.2600   34.7600 N   0  0  0  0  0  0  0  0  0  0  0  0
   26.1200   25.9200   33.6900 C   0  0  0  0  0  0  0  0  0  0  0  0
   25.6300   25.1100   32.9400 O   0  0  0  0  0  0  0  0  0  0  0  0
   27.5200   26.3800   33.4600 C   0  0  0  0  0  0  0  0  0  0  0  0
   28.1600   26.6300   34.6100 N   0  0  0  0  0  0  0  0  0  0  0  0
   29.4800   26.8500   34.5700 N   0  0  0  0  0  0  0  0  0  0  0  0
   30.1900   26.7800   33.4400 C   0  0  0  0  0  0  0  0  0  0  0  0
   31.5600   27.0500   33.5000 C   0  0  0  0  0  0  0  0  0  0  0  0
   32.2700   27.2400   32.3100 C   0  0  0  0  0  0  0  0  0  0  0  0
   31.6100   27.2500   31.0800 C   0  0  0  0  0  0  0  0  0  0  0  0
   30.2700   26.8700   31.0600 C   0  0  0  0  0  0  0  0  0  0  0  0
   29.5100   26.6900   32.2300 C   0  0  0  0  0  0  0  0  0  0  0  0
   28.1400   26.4100   32.2000 C   0  0  0  0  0  0  0  0  0  0  0  0
   27.4300   26.1300   31.0500 N   0  0  0  0  0  0  0  0  0  0  0  0
   24.1155   25.5839   35.1312 C   0  0  0  0  0  0  0  0  0  0  0  0
   23.8573   25.2259   36.4171 N   0  0  0  0  0  0  0  0  0  0  0  0
   22.6427   24.6544   36.3212 C   0  0  0  0  0  0  0  0  0  0  0  0
   21.5454   24.6164   37.3163 C   0  0  0  0  0  0  0  0  0  0  0  0
   20.2836   24.6057   36.4040 C   0  0  0  0  0  0  0  0  0  0  0  0
   20.7544   24.7972   35.0193 N   0  0  0  0  0  0  0  0  0  0  0  0
   22.1690   24.7412   35.0775 C   0  0  0  0  0  0  0  0  0  0  0  0
   23.0554   25.3858   34.2981 N   0  0  0  0  0  0  0  0  0  0  0  0
   22.8258   25.9426   32.9637 C   0  0  0  0  0  0  0  0  0  0  0  0
   20.0016   24.4222   33.8508 C   0  0  0  0  0  0  0  0  0  0  0  0
   20.5241   23.6135   33.0316 O   0  0  0  0  0  0  0  0  0  0  0  0
   18.5983   24.9624   33.5868 C   0  0  0  0  0  0  0  0  0  0  0  0
   17.5667   24.2057   34.4491 C   0  0  0  0  0  0  0  0  0  0  0  0
   18.5402   26.4714   33.9019 C   0  0  0  0  0  0  0  0  0  0  0  0
   18.2257   24.7692   32.0977 C   0  0  0  0  0  0  0  0  0  0  0  0
  1  2  1  0
  2  3  2  0
  2  4  1  0
  4  5  2  0
  5  6  1  0
  6  7  2  0
  7  8  1  0
  8  9  2  0
  9 10  1  0
 10 11  2  0
 11 12  1  0
 12 13  2  0
 13 14  1  0
  1 15  1  0
 15 16  2  0
 16 17  1  0
 17 18  1  0
 18 19  1  0
 19 20  1  0
 20 21  1  0
 21 22  1  0
 22 23  1  0
 20 24  1  0
 24 25  2  0
 24 26  1  0
 26 27  1  0
 26 28  1  0
 26 29  1  0
 13  4  1  0
 22 15  1  0
 12  7  1  0
 21 17  2  0
M  END
>  <AAScore>  (1) 
39113.34284903944

>  <RootName>  (1) 
./4ZLY/04_DeltaGEst/trajectory_03/rank_00/lead_0235

$$$$
