confid_11
     RDKit          3D

 28 31  0  0  0  0  0  0  0  0999 V2000
   24.5700   26.8800   35.5900 N   0  0  0  0  0  0  0  0  0  0  0  0
   25.5000   26.4000   34.6900 C   0  0  0  0  0  0  0  0  0  0  0  0
   25.1700   25.5200   33.9100 O   0  0  0  0  0  0  0  0  0  0  0  0
   26.8400   27.0200   34.7400 C   0  0  0  0  0  0  0  0  0  0  0  0
   27.3800   27.2800   35.9400 N   0  0  0  0  0  0  0  0  0  0  0  0
   28.6200   27.7400   36.0300 N   0  0  0  0  0  0  0  0  0  0  0  0
   29.3800   28.0000   34.9600 C   0  0  0  0  0  0  0  0  0  0  0  0
   30.6700   28.5000   35.1300 C   0  0  0  0  0  0  0  0  0  0  0  0
   31.5400   28.6100   34.0300 C   0  0  0  0  0  0  0  0  0  0  0  0
   31.0900   28.2200   32.7700 C   0  0  0  0  0  0  0  0  0  0  0  0
   29.8000   27.7000   32.6000 C   0  0  0  0  0  0  0  0  0  0  0  0
   28.9600   27.5500   33.7100 C   0  0  0  0  0  0  0  0  0  0  0  0
   27.6600   27.0300   33.5900 C   0  0  0  0  0  0  0  0  0  0  0  0
   27.1600   26.7400   32.3400 N   0  0  0  0  0  0  0  0  0  0  0  0
   23.3020   26.2632   35.8737 C   0  0  0  0  0  0  0  0  0  0  0  0
   22.9927   25.0382   35.3892 N   0  0  0  0  0  0  0  0  0  0  0  0
   21.7990   24.4579   35.6574 C   0  0  0  0  0  0  0  0  0  0  0  0
   20.8168   25.1154   36.4302 C   0  0  0  0  0  0  0  0  0  0  0  0
   19.4638   24.3790   36.5759 C   0  0  1  0  0  0  0  0  0  0  0  0
   18.3398   24.9943   37.4498 C   0  0  0  0  0  0  0  0  0  0  0  0
   17.6048   26.1105   36.8138 N   0  0  0  0  0  0  0  0  0  0  0  0
   16.4814   26.5455   37.6614 C   0  0  0  0  0  0  0  0  0  0  0  0
   18.4241   27.2498   36.3458 C   0  0  0  0  0  0  0  0  0  0  0  0
   19.2489   27.9573   37.4355 C   0  0  0  0  0  0  0  0  0  0  0  0
   20.4153   27.1494   38.0234 C   0  0  0  0  0  0  0  0  0  0  0  0
   21.2092   26.3664   37.0086 C   0  0  0  0  0  0  0  0  0  0  0  0
   22.4232   26.8926   36.6882 N   0  0  0  0  0  0  0  0  0  0  0  0
   18.8757   23.9942   35.1971 C   0  0  0  0  0  0  0  0  0  0  0  0
  1  2  1  0
  2  3  2  0
  2  4  1  0
  4  5  2  0
  5  6  1  0
  6  7  2  0
  7  8  1  0
  8  9  2  0
  9 10  1  0
 10 11  2  0
 11 12  1  0
 12 13  2  0
 13 14  1  0
  1 15  1  0
 15 16  2  0
 16 17  1  0
 17 18  2  0
 18 19  1  0
 19 20  1  0
 20 21  1  0
 21 22  1  0
 21 23  1  0
 23 24  1  0
 24 25  1  0
 25 26  1  0
 26 27  2  0
 19 28  1  6
 13  4  1  0
 27 15  1  0
 12  7  1  0
 26 18  1  0
M  END
>  <AAScore>  (1) 
40670.69205510233

>  <RootName>  (1) 
./4ZLY/04_DeltaGEst/trajectory_05/rank_00/lead_0019

$$$$
