confid_7
     RDKit          3D

 30 33  0  0  0  0  0  0  0  0999 V2000
   24.2000   26.2400   35.6900 N   0  0  0  0  0  0  0  0  0  0  0  0
   24.8500   26.2800   34.4800 C   0  0  0  0  0  0  0  0  0  0  0  0
   24.3100   25.7400   33.5400 O   0  0  0  0  0  0  0  0  0  0  0  0
   26.1800   26.9700   34.4700 C   0  0  0  0  0  0  0  0  0  0  0  0
   26.6500   27.6000   35.5500 N   0  0  0  0  0  0  0  0  0  0  0  0
   27.7900   28.2700   35.6200 N   0  0  0  0  0  0  0  0  0  0  0  0
   28.5400   28.3000   34.5100 C   0  0  0  0  0  0  0  0  0  0  0  0
   29.7700   28.9400   34.5600 C   0  0  0  0  0  0  0  0  0  0  0  0
   30.7000   28.8900   33.5000 C   0  0  0  0  0  0  0  0  0  0  0  0
   30.3700   28.1400   32.3700 C   0  0  0  0  0  0  0  0  0  0  0  0
   29.1200   27.5200   32.2800 C   0  0  0  0  0  0  0  0  0  0  0  0
   28.2100   27.6100   33.3300 C   0  0  0  0  0  0  0  0  0  0  0  0
   26.9700   26.9700   33.3100 C   0  0  0  0  0  0  0  0  0  0  0  0
   26.5300   26.2400   32.2200 N   0  0  0  0  0  0  0  0  0  0  0  0
   30.1393   29.6862   35.7335 N   0  0  0  0  0  0  0  0  0  0  0  0
   31.2320   29.2066   36.5886 C   0  0  0  0  0  0  0  0  0  0  0  0
   31.7922   30.3504   37.4384 C   0  0  0  0  0  0  0  0  0  0  0  0
   31.7445   31.5960   36.6484 N   0  0  0  0  0  0  0  0  0  0  0  0
   32.5821   32.6514   37.2567 C   0  0  0  0  0  0  0  0  0  0  0  0
   32.7778   33.7985   36.2906 C   0  0  0  0  0  0  0  0  0  0  0  0
   33.3585   33.5622   35.0291 C   0  0  0  0  0  0  0  0  0  0  0  0
   33.5272   34.6136   34.1216 C   0  0  0  0  0  0  0  0  0  0  0  0
   33.1364   35.9087   34.4694 C   0  0  0  0  0  0  0  0  0  0  0  0
   33.3184   36.9294   33.5950 F   0  0  0  0  0  0  0  0  0  0  0  0
   32.5769   36.1569   35.7256 C   0  0  0  0  0  0  0  0  0  0  0  0
   32.3890   35.1098   36.6320 C   0  0  0  0  0  0  0  0  0  0  0  0
   31.8460   35.3809   37.8452 F   0  0  0  0  0  0  0  0  0  0  0  0
   33.7783   32.3164   34.6869 F   0  0  0  0  0  0  0  0  0  0  0  0
   30.3427   32.0480   36.4772 C   0  0  0  0  0  0  0  0  0  0  0  0
   29.3894   30.8898   36.1128 C   0  0  0  0  0  0  0  0  0  0  0  0
  1  2  1  0
  2  3  2  0
  2  4  1  0
  4  5  2  0
  5  6  1  0
  6  7  2  0
  7  8  1  0
  8  9  2  0
  9 10  1  0
 10 11  2  0
 11 12  1  0
 12 13  2  0
 13 14  1  0
  8 15  1  0
 15 16  1  0
 16 17  1  0
 17 18  1  0
 18 19  1  0
 19 20  1  0
 20 21  2  0
 21 22  1  0
 22 23  2  0
 23 24  1  0
 23 25  1  0
 25 26  2  0
 26 27  1  0
 21 28  1  0
 18 29  1  0
 29 30  1  0
 13  4  1  0
 30 15  1  0
 12  7  1  0
 26 20  1  0
M  END
>  <AAScore>  (1) 
-7.741225389058991

>  <RootName>  (1) 
./4ZLY/04_DeltaGEst/trajectory_04/rank_01/lead_0384

$$$$
