confid_6
     RDKit          3D

 28 31  0  0  0  0  0  0  0  0999 V2000
   24.5500   26.3900   36.2500 N   0  0  0  0  0  0  0  0  0  0  0  0
   25.6000   26.1300   35.4000 C   0  0  0  0  0  0  0  0  0  0  0  0
   25.4300   25.4300   34.4200 O   0  0  0  0  0  0  0  0  0  0  0  0
   26.9800   26.6300   35.7100 C   0  0  0  0  0  0  0  0  0  0  0  0
   27.3200   26.8200   36.9800 N   0  0  0  0  0  0  0  0  0  0  0  0
   28.4700   27.4000   37.3100 N   0  0  0  0  0  0  0  0  0  0  0  0
   29.4000   27.6300   36.3700 C   0  0  0  0  0  0  0  0  0  0  0  0
   30.6600   28.0500   36.8000 C   0  0  0  0  0  0  0  0  0  0  0  0
   31.5700   28.3600   35.7800 C   0  0  0  0  0  0  0  0  0  0  0  0
   31.3700   28.1000   34.4300 C   0  0  0  0  0  0  0  0  0  0  0  0
   30.1200   27.5900   34.0500 C   0  0  0  0  0  0  0  0  0  0  0  0
   29.1500   27.3400   35.0300 C   0  0  0  0  0  0  0  0  0  0  0  0
   27.8800   26.8900   34.6600 C   0  0  0  0  0  0  0  0  0  0  0  0
   27.4800   26.6100   33.3700 N   0  0  0  0  0  0  0  0  0  0  0  0
   30.9952   28.3231   38.2170 C   0  0  0  0  0  0  0  0  0  0  0  0
   31.9838   27.5401   38.8288 C   0  0  0  0  0  0  0  0  0  0  0  0
   32.3147   27.7369   40.1738 C   0  0  0  0  0  0  0  0  0  0  0  0
   33.3426   26.8758   40.8551 C   0  0  0  0  0  0  0  0  0  0  0  0
   33.9662   27.5786   41.9134 O   0  0  0  0  0  0  0  0  0  0  0  0
   33.0061   27.9327   42.8923 C   0  0  0  0  0  0  0  0  0  0  0  0
   31.9933   28.8396   42.3303 N   0  0  0  0  0  0  0  0  0  0  0  0
   31.6404   28.6981   40.9365 C   0  0  0  0  0  0  0  0  0  0  0  0
   30.6641   29.5027   40.3212 C   0  0  0  0  0  0  0  0  0  0  0  0
   30.3407   29.3327   38.9645 C   0  0  0  0  0  0  0  0  0  0  0  0
   29.3686   30.2079   38.3577 N   0  0  0  0  0  0  0  0  0  0  0  0
   28.0259   30.3154   38.9315 C   0  0  0  0  0  0  0  0  0  0  0  0
   29.7100   31.0046   37.1779 C   0  0  0  0  0  0  0  0  0  0  0  0
   31.2595   29.7392   43.2252 C   0  0  0  0  0  0  0  0  0  0  0  0
  1  2  1  0
  2  3  2  0
  2  4  1  0
  4  5  2  0
  5  6  1  0
  6  7  2  0
  7  8  1  0
  8  9  2  0
  9 10  1  0
 10 11  2  0
 11 12  1  0
 12 13  2  0
 13 14  1  0
  8 15  1  0
 15 16  2  0
 16 17  1  0
 17 18  1  0
 18 19  1  0
 19 20  1  0
 20 21  1  0
 21 22  1  0
 22 23  1  0
 23 24  2  0
 24 25  1  0
 25 26  1  0
 25 27  1  0
 21 28  1  0
 13  4  1  0
 24 15  1  0
 12  7  1  0
 22 17  2  0
M  END
>  <AAScore>  (1) 
190.72167335194712

>  <RootName>  (1) 
./4ZLY/04_DeltaGEst/trajectory_01/rank_01/lead_0317

$$$$
