confid_1
     RDKit          3D

 28 31  0  0  0  0  0  0  0  0999 V2000
   24.6900   26.1200   35.5300 N   0  0  0  0  0  0  0  0  0  0  0  0
   25.6600   25.6700   34.6600 C   0  0  0  0  0  0  0  0  0  0  0  0
   25.2400   25.0100   33.7200 O   0  0  0  0  0  0  0  0  0  0  0  0
   27.0300   26.2200   34.8800 C   0  0  0  0  0  0  0  0  0  0  0  0
   27.3500   26.7300   36.0700 N   0  0  0  0  0  0  0  0  0  0  0  0
   28.5700   27.1800   36.3300 N   0  0  0  0  0  0  0  0  0  0  0  0
   29.5300   27.1100   35.3900 C   0  0  0  0  0  0  0  0  0  0  0  0
   30.8300   27.5700   35.6500 C   0  0  0  0  0  0  0  0  0  0  0  0
   31.8500   27.5400   34.6900 C   0  0  0  0  0  0  0  0  0  0  0  0
   31.5100   27.1200   33.4000 C   0  0  0  0  0  0  0  0  0  0  0  0
   30.2200   26.6300   33.1100 C   0  0  0  0  0  0  0  0  0  0  0  0
   29.2400   26.6600   34.1000 C   0  0  0  0  0  0  0  0  0  0  0  0
   27.9300   26.2600   33.8100 C   0  0  0  0  0  0  0  0  0  0  0  0
   27.5200   25.7100   32.6100 N   0  0  0  0  0  0  0  0  0  0  0  0
   23.2889   26.1347   35.2149 C   0  0  0  0  0  0  0  0  0  0  0  0
   22.3753   25.5264   35.9983 N   0  0  0  0  0  0  0  0  0  0  0  0
   21.2070   25.7334   35.3630 C   0  0  0  0  0  0  0  0  0  0  0  0
   21.4266   26.4588   34.2104 C   0  0  0  0  0  0  0  0  0  0  0  0
   20.3278   26.9693   33.3143 C   0  0  0  0  0  0  0  0  0  0  0  0
   20.7366   26.9226   31.8934 N   0  0  0  0  0  0  0  0  0  0  0  0
   19.8840   25.9768   31.1450 C   0  0  0  0  0  0  0  0  0  0  0  0
   20.4383   25.7057   29.7494 C   0  0  0  0  0  0  0  0  0  0  0  0
   20.5633   28.1725   31.3666 O   0  0  0  0  0  0  0  0  0  0  0  0
   21.7621   28.5310   30.7071 C   0  0  0  0  0  0  0  0  0  0  0  0
   22.6522   29.4493   31.5636 C   0  0  0  0  0  0  0  0  0  0  0  0
   22.8943   28.9748   33.0069 C   0  0  0  0  0  0  0  0  0  0  0  0
   23.4533   27.5391   33.1112 C   0  0  0  0  0  0  0  0  0  0  0  0
   22.7485   26.7484   34.1327 N   0  0  0  0  0  0  0  0  0  0  0  0
  1  2  1  0
  2  3  2  0
  2  4  1  0
  4  5  2  0
  5  6  1  0
  6  7  2  0
  7  8  1  0
  8  9  2  0
  9 10  1  0
 10 11  2  0
 11 12  1  0
 12 13  2  0
 13 14  1  0
  1 15  1  0
 15 16  2  0
 16 17  1  0
 17 18  2  0
 18 19  1  0
 19 20  1  0
 20 21  1  0
 21 22  1  0
 20 23  1  0
 23 24  1  0
 24 25  1  0
 25 26  1  0
 26 27  1  0
 27 28  1  0
 13  4  1  0
 28 15  1  0
 12  7  1  0
 28 18  1  0
M  END
>  <AAScore>  (1) 
2148.810003340649

>  <RootName>  (1) 
./4ZLY/04_DeltaGEst/trajectory_02/rank_00/lead_0232

$$$$
