confid_6
     RDKit          3D

 30 33  0  0  0  0  0  0  0  0999 V2000
   25.3300   26.2600   34.7600 N   0  0  0  0  0  0  0  0  0  0  0  0
   26.1200   25.9200   33.6900 C   0  0  0  0  0  0  0  0  0  0  0  0
   25.6300   25.1100   32.9400 O   0  0  0  0  0  0  0  0  0  0  0  0
   27.5200   26.3800   33.4600 C   0  0  0  0  0  0  0  0  0  0  0  0
   28.1600   26.6300   34.6100 N   0  0  0  0  0  0  0  0  0  0  0  0
   29.4800   26.8500   34.5700 N   0  0  0  0  0  0  0  0  0  0  0  0
   30.1900   26.7800   33.4400 C   0  0  0  0  0  0  0  0  0  0  0  0
   31.5600   27.0500   33.5000 C   0  0  0  0  0  0  0  0  0  0  0  0
   32.2700   27.2400   32.3100 C   0  0  0  0  0  0  0  0  0  0  0  0
   31.6100   27.2500   31.0800 C   0  0  0  0  0  0  0  0  0  0  0  0
   30.2700   26.8700   31.0600 C   0  0  0  0  0  0  0  0  0  0  0  0
   29.5100   26.6900   32.2300 C   0  0  0  0  0  0  0  0  0  0  0  0
   28.1400   26.4100   32.2000 C   0  0  0  0  0  0  0  0  0  0  0  0
   27.4300   26.1300   31.0500 N   0  0  0  0  0  0  0  0  0  0  0  0
   27.3070   24.7267   30.5629 C   0  0  0  0  0  0  0  0  0  0  0  0
   28.6373   24.0376   30.1706 C   0  0  0  0  0  0  0  0  0  0  0  0
   28.4704   23.1254   29.0235 N   0  0  0  0  0  0  0  0  0  0  0  0
   29.5584   22.9239   28.0936 C   0  0  0  0  0  0  0  0  0  0  0  0
   30.2444   21.6974   28.1164 C   0  0  0  0  0  0  0  0  0  0  0  0
   31.2293   21.4266   27.1704 C   0  0  0  0  0  0  0  0  0  0  0  0
   31.5375   22.3495   26.2275 N   0  0  0  0  0  0  0  0  0  0  0  0
   30.9195   23.5569   26.1814 C   0  0  0  0  0  0  0  0  0  0  0  0
   29.9232   23.8939   27.1175 C   0  0  0  0  0  0  0  0  0  0  0  0
   29.3832   25.3087   27.0992 C   0  0  0  0  0  0  0  0  0  0  0  0
   27.8862   25.4043   26.7791 C   0  0  0  0  0  0  0  0  0  0  0  0
   27.3763   26.8312   27.0153 C   0  0  0  0  0  0  0  0  0  0  0  0
   27.5388   27.1848   28.3799 O   0  0  0  0  0  0  0  0  0  0  0  0
   26.2965   27.1983   29.0494 C   0  0  0  0  0  0  0  0  0  0  0  0
   26.5090   27.1850   30.5708 C   0  0  0  0  0  0  0  0  0  0  0  0
   27.3555   22.1645   28.9880 C   0  0  0  0  0  0  0  0  0  0  0  0
  1  2  1  0
  2  3  2  0
  2  4  1  0
  4  5  2  0
  5  6  1  0
  6  7  2  0
  7  8  1  0
  8  9  2  0
  9 10  1  0
 10 11  2  0
 11 12  1  0
 12 13  2  0
 13 14  1  0
 14 15  1  0
 15 16  1  0
 16 17  1  0
 17 18  1  0
 18 19  2  0
 19 20  1  0
 20 21  2  0
 21 22  1  0
 22 23  2  0
 23 24  1  0
 24 25  1  0
 25 26  1  0
 26 27  1  0
 27 28  1  0
 28 29  1  0
 17 30  1  0
 13  4  1  0
 29 14  1  0
 12  7  1  0
 23 18  1  0
M  END
>  <AAScore>  (1) 
-0.4469014425713599

>  <RootName>  (1) 
./4ZLY/04_DeltaGEst/trajectory_03/rank_01/lead_0313

$$$$
