confid_6
     RDKit          3D

 28 32  0  0  0  0  0  0  0  0999 V2000
   24.5700   26.8800   35.5900 N   0  0  0  0  0  0  0  0  0  0  0  0
   25.5000   26.4000   34.6900 C   0  0  0  0  0  0  0  0  0  0  0  0
   25.1700   25.5200   33.9100 O   0  0  0  0  0  0  0  0  0  0  0  0
   26.8400   27.0200   34.7400 C   0  0  0  0  0  0  0  0  0  0  0  0
   27.3800   27.2800   35.9400 N   0  0  0  0  0  0  0  0  0  0  0  0
   28.6200   27.7400   36.0300 N   0  0  0  0  0  0  0  0  0  0  0  0
   29.3800   28.0000   34.9600 C   0  0  0  0  0  0  0  0  0  0  0  0
   30.6700   28.5000   35.1300 C   0  0  0  0  0  0  0  0  0  0  0  0
   31.5400   28.6100   34.0300 C   0  0  0  0  0  0  0  0  0  0  0  0
   31.0900   28.2200   32.7700 C   0  0  0  0  0  0  0  0  0  0  0  0
   29.8000   27.7000   32.6000 C   0  0  0  0  0  0  0  0  0  0  0  0
   28.9600   27.5500   33.7100 C   0  0  0  0  0  0  0  0  0  0  0  0
   27.6600   27.0300   33.5900 C   0  0  0  0  0  0  0  0  0  0  0  0
   27.1600   26.7400   32.3400 N   0  0  0  0  0  0  0  0  0  0  0  0
   23.3030   26.2628   35.8773 C   0  0  0  0  0  0  0  0  0  0  0  0
   22.9786   25.0360   35.3579 N   0  0  0  0  0  0  0  0  0  0  0  0
   21.7855   24.4382   35.6357 C   0  0  0  0  0  0  0  0  0  0  0  0
   20.8935   25.0985   36.4738 C   0  0  0  0  0  0  0  0  0  0  0  0
   19.5304   24.6957   36.9379 C   0  0  2  0  0  0  0  0  0  0  0  0
   18.6881   24.5762   35.8409 F   0  0  0  0  0  0  0  0  0  0  0  0
   19.0914   25.9091   37.8189 C   0  0  0  0  0  0  0  0  0  0  0  0
   20.2115   26.8499   37.7911 N   0  0  0  0  0  0  0  0  0  0  0  0
   20.2557   28.1394   38.4676 C   0  0  0  0  0  0  0  0  0  0  0  0
   21.2319   26.3125   36.9792 C   0  0  0  0  0  0  0  0  0  0  0  0
   22.4191   26.9044   36.6978 N   0  0  0  0  0  0  0  0  0  0  0  0
   19.6143   23.4005   37.7738 C   0  0  0  0  0  0  0  0  0  0  0  0
   18.3135   22.6249   37.9215 C   0  0  0  0  0  0  0  0  0  0  0  0
   19.4202   22.0899   37.0242 C   0  0  0  0  0  0  0  0  0  0  0  0
  1  2  1  0
  2  3  2  0
  2  4  1  0
  4  5  2  0
  5  6  1  0
  6  7  2  0
  7  8  1  0
  8  9  2  0
  9 10  1  0
 10 11  2  0
 11 12  1  0
 12 13  2  0
 13 14  1  0
  1 15  1  0
 15 16  2  0
 16 17  1  0
 17 18  2  0
 18 19  1  0
 19 20  1  6
 19 21  1  0
 21 22  1  0
 22 23  1  0
 22 24  1  0
 24 25  2  0
 19 26  1  0
 26 27  1  0
 27 28  1  0
 13  4  1  0
 25 15  1  0
 28 26  1  0
 12  7  1  0
 24 18  1  0
M  END
>  <AAScore>  (1) 
48760.392358491335

>  <RootName>  (1) 
./4ZLY/04_DeltaGEst/trajectory_05/rank_00/lead_0236

$$$$
