confid_1
     RDKit          3D

 28 31  0  0  0  0  0  0  0  0999 V2000
   24.5500   26.3900   36.2500 N   0  0  0  0  0  0  0  0  0  0  0  0
   25.6000   26.1300   35.4000 C   0  0  0  0  0  0  0  0  0  0  0  0
   25.4300   25.4300   34.4200 O   0  0  0  0  0  0  0  0  0  0  0  0
   26.9800   26.6300   35.7100 C   0  0  0  0  0  0  0  0  0  0  0  0
   27.3200   26.8200   36.9800 N   0  0  0  0  0  0  0  0  0  0  0  0
   28.4700   27.4000   37.3100 N   0  0  0  0  0  0  0  0  0  0  0  0
   29.4000   27.6300   36.3700 C   0  0  0  0  0  0  0  0  0  0  0  0
   30.6600   28.0500   36.8000 C   0  0  0  0  0  0  0  0  0  0  0  0
   31.5700   28.3600   35.7800 C   0  0  0  0  0  0  0  0  0  0  0  0
   31.3700   28.1000   34.4300 C   0  0  0  0  0  0  0  0  0  0  0  0
   30.1200   27.5900   34.0500 C   0  0  0  0  0  0  0  0  0  0  0  0
   29.1500   27.3400   35.0300 C   0  0  0  0  0  0  0  0  0  0  0  0
   27.8800   26.8900   34.6600 C   0  0  0  0  0  0  0  0  0  0  0  0
   27.4800   26.6100   33.3700 N   0  0  0  0  0  0  0  0  0  0  0  0
   23.1641   26.0073   35.9494 C   0  0  0  0  0  0  0  0  0  0  0  0
   22.4827   27.1040   35.0887 C   0  0  0  0  0  0  0  0  0  0  0  0
   21.2917   27.7729   35.7849 C   0  0  0  0  0  0  0  0  0  0  0  0
   20.3595   26.7521   36.2953 N   0  0  0  0  0  0  0  0  0  0  0  0
   18.9196   26.8918   36.2036 C   0  0  0  0  0  0  0  0  0  0  0  0
   18.1904   25.9383   36.5949 O   0  0  0  0  0  0  0  0  0  0  0  0
   18.2554   28.1599   35.6906 C   0  0  0  0  0  0  0  0  0  0  0  0
   18.3398   28.3461   34.1857 C   0  0  0  0  0  0  0  0  0  0  0  0
   16.9441   28.2574   34.0202 O   0  0  0  0  0  0  0  0  0  0  0  0
   16.7605   28.0732   35.4033 C   0  0  0  0  0  0  0  0  0  0  0  0
   18.6113   29.3621   36.4675 C   0  0  0  0  0  0  0  0  0  0  0  0
   18.8934   30.3044   37.0773 N   0  0  0  0  0  0  0  0  0  0  0  0
   20.9022   25.5828   37.0107 C   0  0  0  0  0  0  0  0  0  0  0  0
   22.4087   25.7146   37.2596 C   0  0  0  0  0  0  0  0  0  0  0  0
  1  2  1  0
  2  3  2  0
  2  4  1  0
  4  5  2  0
  5  6  1  0
  6  7  2  0
  7  8  1  0
  8  9  2  0
  9 10  1  0
 10 11  2  0
 11 12  1  0
 12 13  2  0
 13 14  1  0
  1 15  1  0
 15 16  1  0
 16 17  1  0
 17 18  1  0
 18 19  1  0
 19 20  2  0
 19 21  1  0
 21 22  1  0
 22 23  1  0
 23 24  1  0
 21 25  1  0
 25 26  3  0
 18 27  1  0
 27 28  1  0
 13  4  1  0
 28 15  1  0
 12  7  1  0
 24 21  1  0
M  END
>  <AAScore>  (1) 
129.52780453745413

>  <RootName>  (1) 
./4ZLY/04_DeltaGEst/trajectory_01/rank_00/lead_0483

$$$$
