confid_14
     RDKit          3D

 27 30  0  0  0  0  0  0  0  0999 V2000
   25.3300   26.2600   34.7600 N   0  0  0  0  0  0  0  0  0  0  0  0
   26.1200   25.9200   33.6900 C   0  0  0  0  0  0  0  0  0  0  0  0
   25.6300   25.1100   32.9400 O   0  0  0  0  0  0  0  0  0  0  0  0
   27.5200   26.3800   33.4600 C   0  0  0  0  0  0  0  0  0  0  0  0
   28.1600   26.6300   34.6100 N   0  0  0  0  0  0  0  0  0  0  0  0
   29.4800   26.8500   34.5700 N   0  0  0  0  0  0  0  0  0  0  0  0
   30.1900   26.7800   33.4400 C   0  0  0  0  0  0  0  0  0  0  0  0
   31.5600   27.0500   33.5000 C   0  0  0  0  0  0  0  0  0  0  0  0
   32.2700   27.2400   32.3100 C   0  0  0  0  0  0  0  0  0  0  0  0
   31.6100   27.2500   31.0800 C   0  0  0  0  0  0  0  0  0  0  0  0
   30.2700   26.8700   31.0600 C   0  0  0  0  0  0  0  0  0  0  0  0
   29.5100   26.6900   32.2300 C   0  0  0  0  0  0  0  0  0  0  0  0
   28.1400   26.4100   32.2000 C   0  0  0  0  0  0  0  0  0  0  0  0
   27.4300   26.1300   31.0500 N   0  0  0  0  0  0  0  0  0  0  0  0
   23.8918   26.2035   34.7832 C   0  0  0  0  0  0  0  0  0  0  0  0
   23.2584   26.0210   35.9795 N   0  0  0  0  0  0  0  0  0  0  0  0
   21.9033   25.9883   36.0393 C   0  0  0  0  0  0  0  0  0  0  0  0
   21.0764   25.8223   37.2490 C   0  0  0  0  0  0  0  0  0  0  0  0
   19.7059   26.1423   36.7979 N   0  0  0  0  0  0  0  0  0  0  0  0
   18.6754   25.3865   37.5257 C   0  0  0  0  0  0  0  0  0  0  0  0
   19.6896   26.0434   35.3092 C   0  0  2  0  0  0  0  0  0  0  0  0
   19.1000   24.7272   34.7624 C   0  0  0  0  0  0  0  0  0  0  0  0
   21.1279   26.1398   34.9297 C   0  0  0  0  0  0  0  0  0  0  0  0
   21.7189   26.3674   33.6823 C   0  0  0  0  0  0  0  0  0  0  0  0
   23.1218   26.4033   33.6101 C   0  0  0  0  0  0  0  0  0  0  0  0
   20.9228   26.5889   32.5027 C   0  0  0  0  0  0  0  0  0  0  0  0
   20.2828   26.7668   31.5552 N   0  0  0  0  0  0  0  0  0  0  0  0
  1  2  1  0
  2  3  2  0
  2  4  1  0
  4  5  2  0
  5  6  1  0
  6  7  2  0
  7  8  1  0
  8  9  2  0
  9 10  1  0
 10 11  2  0
 11 12  1  0
 12 13  2  0
 13 14  1  0
  1 15  1  0
 15 16  2  0
 16 17  1  0
 17 18  1  0
 18 19  1  0
 19 20  1  0
 19 21  1  0
 21 22  1  1
 21 23  1  0
 23 24  1  0
 24 25  2  0
 24 26  1  0
 26 27  3  0
 13  4  1  0
 25 15  1  0
 12  7  1  0
 23 17  2  0
M  END
>  <AAScore>  (1) 
6032.517568462082

>  <RootName>  (1) 
./4ZLY/04_DeltaGEst/trajectory_03/rank_00/lead_0396

$$$$
