confid_7
     RDKit          3D

 28 31  0  0  0  0  0  0  0  0999 V2000
   24.6900   26.1200   35.5300 N   0  0  0  0  0  0  0  0  0  0  0  0
   25.6600   25.6700   34.6600 C   0  0  0  0  0  0  0  0  0  0  0  0
   25.2400   25.0100   33.7200 O   0  0  0  0  0  0  0  0  0  0  0  0
   27.0300   26.2200   34.8800 C   0  0  0  0  0  0  0  0  0  0  0  0
   27.3500   26.7300   36.0700 N   0  0  0  0  0  0  0  0  0  0  0  0
   28.5700   27.1800   36.3300 N   0  0  0  0  0  0  0  0  0  0  0  0
   29.5300   27.1100   35.3900 C   0  0  0  0  0  0  0  0  0  0  0  0
   30.8300   27.5700   35.6500 C   0  0  0  0  0  0  0  0  0  0  0  0
   31.8500   27.5400   34.6900 C   0  0  0  0  0  0  0  0  0  0  0  0
   31.5100   27.1200   33.4000 C   0  0  0  0  0  0  0  0  0  0  0  0
   30.2200   26.6300   33.1100 C   0  0  0  0  0  0  0  0  0  0  0  0
   29.2400   26.6600   34.1000 C   0  0  0  0  0  0  0  0  0  0  0  0
   27.9300   26.2600   33.8100 C   0  0  0  0  0  0  0  0  0  0  0  0
   27.5200   25.7100   32.6100 N   0  0  0  0  0  0  0  0  0  0  0  0
   31.1790   28.0630   37.0084 C   0  0  0  0  0  0  0  0  0  0  0  0
   31.9396   29.2285   37.1821 C   0  0  0  0  0  0  0  0  0  0  0  0
   32.2762   29.6626   38.4673 C   0  0  0  0  0  0  0  0  0  0  0  0
   33.0733   30.8110   38.5770 O   0  0  0  0  0  0  0  0  0  0  0  0
   33.9502   31.0798   39.6695 C   0  0  0  0  0  0  0  0  0  0  0  0
   33.2269   31.5970   40.8499 N   0  0  0  0  0  0  0  0  0  0  0  0
   33.1355   33.0741   40.8968 C   0  0  0  0  0  0  0  0  0  0  0  0
   32.4407   33.7004   39.6693 C   0  0  0  0  0  0  0  0  0  0  0  0
   32.3596   35.2182   39.8063 C   0  0  0  0  0  0  0  0  0  0  0  0
   31.9414   30.9320   41.1478 C   0  0  0  0  0  0  0  0  0  0  0  0
   32.0298   29.4038   41.0133 C   0  0  0  0  0  0  0  0  0  0  0  0
   31.7972   28.9459   39.5906 C   0  0  0  0  0  0  0  0  0  0  0  0
   31.0556   27.7750   39.3677 C   0  0  0  0  0  0  0  0  0  0  0  0
   30.7679   27.3700   38.1042 N   0  0  0  0  0  0  0  0  0  0  0  0
  1  2  1  0
  2  3  2  0
  2  4  1  0
  4  5  2  0
  5  6  1  0
  6  7  2  0
  7  8  1  0
  8  9  2  0
  9 10  1  0
 10 11  2  0
 11 12  1  0
 12 13  2  0
 13 14  1  0
  8 15  1  0
 15 16  2  0
 16 17  1  0
 17 18  1  0
 18 19  1  0
 19 20  1  0
 20 21  1  0
 21 22  1  0
 22 23  1  0
 20 24  1  0
 24 25  1  0
 25 26  1  0
 26 27  1  0
 27 28  2  0
 13  4  1  0
 28 15  1  0
 12  7  1  0
 26 17  2  0
M  END
>  <AAScore>  (1) 
4.75132415532178

>  <RootName>  (1) 
./4ZLY/04_DeltaGEst/trajectory_02/rank_01/lead_0061

$$$$
