confid_10
     RDKit          3D

 27 30  0  0  0  0  0  0  0  0999 V2000
   24.2000   26.2400   35.6900 N   0  0  0  0  0  0  0  0  0  0  0  0
   24.8500   26.2800   34.4800 C   0  0  0  0  0  0  0  0  0  0  0  0
   24.3100   25.7400   33.5400 O   0  0  0  0  0  0  0  0  0  0  0  0
   26.1800   26.9700   34.4700 C   0  0  0  0  0  0  0  0  0  0  0  0
   26.6500   27.6000   35.5500 N   0  0  0  0  0  0  0  0  0  0  0  0
   27.7900   28.2700   35.6200 N   0  0  0  0  0  0  0  0  0  0  0  0
   28.5400   28.3000   34.5100 C   0  0  0  0  0  0  0  0  0  0  0  0
   29.7700   28.9400   34.5600 C   0  0  0  0  0  0  0  0  0  0  0  0
   30.7000   28.8900   33.5000 C   0  0  0  0  0  0  0  0  0  0  0  0
   30.3700   28.1400   32.3700 C   0  0  0  0  0  0  0  0  0  0  0  0
   29.1200   27.5200   32.2800 C   0  0  0  0  0  0  0  0  0  0  0  0
   28.2100   27.6100   33.3300 C   0  0  0  0  0  0  0  0  0  0  0  0
   26.9700   26.9700   33.3100 C   0  0  0  0  0  0  0  0  0  0  0  0
   26.5300   26.2400   32.2200 N   0  0  0  0  0  0  0  0  0  0  0  0
   23.2051   25.2553   36.0378 C   0  0  0  0  0  0  0  0  0  0  0  0
   23.1309   24.0856   35.3452 N   0  0  0  0  0  0  0  0  0  0  0  0
   22.2459   23.1073   35.6636 C   0  0  0  0  0  0  0  0  0  0  0  0
   21.3698   23.2705   36.7422 C   0  0  0  0  0  0  0  0  0  0  0  0
   20.4394   22.1416   37.1227 C   0  0  0  0  0  0  0  0  0  0  0  0
   19.3116   22.5842   37.9657 N   0  0  0  0  0  0  0  0  0  0  0  0
   18.2661   23.2612   37.1784 C   0  0  0  0  0  0  0  0  0  0  0  0
   19.7805   23.3971   39.1046 C   0  0  0  0  0  0  0  0  0  0  0  0
   20.4911   24.6833   38.6565 C   0  0  0  0  0  0  0  0  0  0  0  0
   21.4421   24.4499   37.5080 C   0  0  0  0  0  0  0  0  0  0  0  0
   22.3443   25.4628   37.1334 C   0  0  0  0  0  0  0  0  0  0  0  0
   22.3794   26.6612   37.8524 O   0  0  0  0  0  0  0  0  0  0  0  0
   21.8040   27.8549   37.3368 C   0  0  0  0  0  0  0  0  0  0  0  0
  1  2  1  0
  2  3  2  0
  2  4  1  0
  4  5  2  0
  5  6  1  0
  6  7  2  0
  7  8  1  0
  8  9  2  0
  9 10  1  0
 10 11  2  0
 11 12  1  0
 12 13  2  0
 13 14  1  0
  1 15  1  0
 15 16  2  0
 16 17  1  0
 17 18  2  0
 18 19  1  0
 19 20  1  0
 20 21  1  0
 20 22  1  0
 22 23  1  0
 23 24  1  0
 24 25  2  0
 25 26  1  0
 26 27  1  0
 13  4  1  0
 25 15  1  0
 12  7  1  0
 24 18  1  0
M  END
>  <AAScore>  (1) 
997.3655358232584

>  <RootName>  (1) 
./4ZLY/04_DeltaGEst/trajectory_04/rank_00/lead_0344

$$$$
