confid_13
     RDKit          3D

 31 34  0  0  0  0  0  0  0  0999 V2000
   25.3300   26.2600   34.7600 N   0  0  0  0  0  0  0  0  0  0  0  0
   26.1200   25.9200   33.6900 C   0  0  0  0  0  0  0  0  0  0  0  0
   25.6300   25.1100   32.9400 O   0  0  0  0  0  0  0  0  0  0  0  0
   27.5200   26.3800   33.4600 C   0  0  0  0  0  0  0  0  0  0  0  0
   28.1600   26.6300   34.6100 N   0  0  0  0  0  0  0  0  0  0  0  0
   29.4800   26.8500   34.5700 N   0  0  0  0  0  0  0  0  0  0  0  0
   30.1900   26.7800   33.4400 C   0  0  0  0  0  0  0  0  0  0  0  0
   31.5600   27.0500   33.5000 C   0  0  0  0  0  0  0  0  0  0  0  0
   32.2700   27.2400   32.3100 C   0  0  0  0  0  0  0  0  0  0  0  0
   31.6100   27.2500   31.0800 C   0  0  0  0  0  0  0  0  0  0  0  0
   30.2700   26.8700   31.0600 C   0  0  0  0  0  0  0  0  0  0  0  0
   29.5100   26.6900   32.2300 C   0  0  0  0  0  0  0  0  0  0  0  0
   28.1400   26.4100   32.2000 C   0  0  0  0  0  0  0  0  0  0  0  0
   27.4300   26.1300   31.0500 N   0  0  0  0  0  0  0  0  0  0  0  0
   27.5668   24.8093   30.4208 C   0  0  0  0  0  0  0  0  0  0  0  0
   26.5639   24.6239   29.2764 C   0  0  0  0  0  0  0  0  0  0  0  0
   26.5554   25.8036   28.3958 N   0  0  0  0  0  0  0  0  0  0  0  0
   26.3868   25.6711   26.9684 C   0  0  0  0  0  0  0  0  0  0  0  0
   26.7443   26.6184   26.2146 O   0  0  0  0  0  0  0  0  0  0  0  0
   25.8292   24.4063   26.3576 C   0  0  0  0  0  0  0  0  0  0  0  0
   25.1321   24.6470   25.0162 C   0  0  0  0  0  0  0  0  0  0  0  0
   26.0934   24.9896   24.0198 O   0  0  0  0  0  0  0  0  0  0  0  0
   25.7821   25.2770   22.6830 C   0  0  0  0  0  0  0  0  0  0  0  0
   26.8283   25.6110   21.8133 C   0  0  0  0  0  0  0  0  0  0  0  0
   26.5683   25.9065   20.4715 C   0  0  0  0  0  0  0  0  0  0  0  0
   25.2577   25.8700   19.9879 C   0  0  0  0  0  0  0  0  0  0  0  0
   25.0065   26.1567   18.6868 F   0  0  0  0  0  0  0  0  0  0  0  0
   24.2061   25.5378   20.8464 C   0  0  0  0  0  0  0  0  0  0  0  0
   24.4626   25.2417   22.1892 C   0  0  0  0  0  0  0  0  0  0  0  0
   26.6294   27.1569   28.9705 C   0  0  0  0  0  0  0  0  0  0  0  0
   26.5161   27.1336   30.4968 C   0  0  0  0  0  0  0  0  0  0  0  0
  1  2  1  0
  2  3  2  0
  2  4  1  0
  4  5  2  0
  5  6  1  0
  6  7  2  0
  7  8  1  0
  8  9  2  0
  9 10  1  0
 10 11  2  0
 11 12  1  0
 12 13  2  0
 13 14  1  0
 14 15  1  0
 15 16  1  0
 16 17  1  0
 17 18  1  0
 18 19  2  0
 18 20  1  0
 20 21  1  0
 21 22  1  0
 22 23  1  0
 23 24  2  0
 24 25  1  0
 25 26  2  0
 26 27  1  0
 26 28  1  0
 28 29  2  0
 17 30  1  0
 30 31  1  0
 13  4  1  0
 31 14  1  0
 12  7  1  0
 29 23  1  0
M  END
>  <AAScore>  (1) 
2.21461774860876

>  <RootName>  (1) 
./4ZLY/04_DeltaGEst/trajectory_03/rank_01/lead_0146

$$$$
