confid_1
     RDKit          3D

 31 34  0  0  0  0  0  0  0  0999 V2000
   24.2000   26.2400   35.6900 N   0  0  0  0  0  0  0  0  0  0  0  0
   24.8500   26.2800   34.4800 C   0  0  0  0  0  0  0  0  0  0  0  0
   24.3100   25.7400   33.5400 O   0  0  0  0  0  0  0  0  0  0  0  0
   26.1800   26.9700   34.4700 C   0  0  0  0  0  0  0  0  0  0  0  0
   26.6500   27.6000   35.5500 N   0  0  0  0  0  0  0  0  0  0  0  0
   27.7900   28.2700   35.6200 N   0  0  0  0  0  0  0  0  0  0  0  0
   28.5400   28.3000   34.5100 C   0  0  0  0  0  0  0  0  0  0  0  0
   29.7700   28.9400   34.5600 C   0  0  0  0  0  0  0  0  0  0  0  0
   30.7000   28.8900   33.5000 C   0  0  0  0  0  0  0  0  0  0  0  0
   30.3700   28.1400   32.3700 C   0  0  0  0  0  0  0  0  0  0  0  0
   29.1200   27.5200   32.2800 C   0  0  0  0  0  0  0  0  0  0  0  0
   28.2100   27.6100   33.3300 C   0  0  0  0  0  0  0  0  0  0  0  0
   26.9700   26.9700   33.3100 C   0  0  0  0  0  0  0  0  0  0  0  0
   26.5300   26.2400   32.2200 N   0  0  0  0  0  0  0  0  0  0  0  0
   23.4397   25.1083   36.1538 C   0  0  0  0  0  0  0  0  0  0  0  0
   23.5709   23.9610   35.5466 N   0  0  0  0  0  0  0  0  0  0  0  0
   22.9913   22.6760   35.8275 C   0  0  0  0  0  0  0  0  0  0  0  0
   21.6939   22.3332   35.6320 C   0  0  0  0  0  0  0  0  0  0  0  0
   21.3532   20.8551   35.6249 C   0  0  0  0  0  0  0  0  0  0  0  0
   20.3079   20.5664   34.6286 N   0  0  0  0  0  0  0  0  0  0  0  0
   19.1613   21.4777   34.4766 C   0  0  0  0  0  0  0  0  0  0  0  0
   19.1689   22.5860   35.5355 C   0  0  0  0  0  0  0  0  0  0  0  0
   20.5289   23.3201   35.6070 C   0  0  2  0  0  0  0  0  0  0  0  0
   20.6277   24.4066   34.5043 C   0  0  0  0  0  0  0  0  0  0  0  0
   20.1176   25.7752   34.9988 C   0  0  0  0  0  0  0  0  0  0  0  0
   21.1864   26.5568   35.6465 N   0  0  0  0  0  0  0  0  0  0  0  0
   21.3699   26.2606   37.0855 C   0  0  0  0  0  0  0  0  0  0  0  0
   22.5592   25.3026   37.3611 C   0  0  0  0  0  0  0  0  0  0  0  0
   20.3418   19.3262   33.8852 C   0  0  0  0  0  0  0  0  0  0  0  0
   21.1841   18.4341   34.1782 O   0  0  0  0  0  0  0  0  0  0  0  0
   19.3691   19.0506   32.7774 C   0  0  0  0  0  0  0  0  0  0  0  0
  1  2  1  0
  2  3  2  0
  2  4  1  0
  4  5  2  0
  5  6  1  0
  6  7  2  0
  7  8  1  0
  8  9  2  0
  9 10  1  0
 10 11  2  0
 11 12  1  0
 12 13  2  0
 13 14  1  0
  1 15  1  0
 15 16  2  0
 16 17  1  0
 17 18  2  0
 18 19  1  0
 19 20  1  0
 20 21  1  0
 21 22  1  0
 23 22  1  6
 23 24  1  0
 24 25  1  0
 25 26  1  0
 26 27  1  0
 27 28  1  0
 20 29  1  0
 29 30  2  0
 29 31  1  0
 13  4  1  0
 28 15  1  0
 12  7  1  0
 23 18  1  0
M  END
>  <AAScore>  (1) 
6779.958628156873

>  <RootName>  (1) 
./4ZLY/04_DeltaGEst/trajectory_04/rank_00/lead_0212

$$$$
