confid_10
     RDKit          3D

 27 31  0  0  0  0  0  0  0  0999 V2000
   24.2000   26.2400   35.6900 N   0  0  0  0  0  0  0  0  0  0  0  0
   24.8500   26.2800   34.4800 C   0  0  0  0  0  0  0  0  0  0  0  0
   24.3100   25.7400   33.5400 O   0  0  0  0  0  0  0  0  0  0  0  0
   26.1800   26.9700   34.4700 C   0  0  0  0  0  0  0  0  0  0  0  0
   26.6500   27.6000   35.5500 N   0  0  0  0  0  0  0  0  0  0  0  0
   27.7900   28.2700   35.6200 N   0  0  0  0  0  0  0  0  0  0  0  0
   28.5400   28.3000   34.5100 C   0  0  0  0  0  0  0  0  0  0  0  0
   29.7700   28.9400   34.5600 C   0  0  0  0  0  0  0  0  0  0  0  0
   30.7000   28.8900   33.5000 C   0  0  0  0  0  0  0  0  0  0  0  0
   30.3700   28.1400   32.3700 C   0  0  0  0  0  0  0  0  0  0  0  0
   29.1200   27.5200   32.2800 C   0  0  0  0  0  0  0  0  0  0  0  0
   28.2100   27.6100   33.3300 C   0  0  0  0  0  0  0  0  0  0  0  0
   26.9700   26.9700   33.3100 C   0  0  0  0  0  0  0  0  0  0  0  0
   26.5300   26.2400   32.2200 N   0  0  0  0  0  0  0  0  0  0  0  0
   30.1302   29.6721   35.7421 N   0  0  0  0  0  0  0  0  0  0  0  0
   31.2707   29.2209   36.5544 C   0  0  0  0  0  0  0  0  0  0  0  0
   30.9505   29.3636   38.0493 C   0  0  0  0  0  0  0  0  0  0  0  0
   30.3130   30.6895   38.3170 C   0  0  0  0  0  0  0  0  0  0  0  0
   30.1616   31.4521   39.8068 S   0  0  0  0  0  0  0  0  0  0  0  0
   29.2461   32.7151   39.1621 C   0  0  0  0  0  0  0  0  0  0  0  0
   28.7611   33.8951   39.9396 C   0  0  0  0  0  0  0  0  0  0  0  0
   29.6182   35.1219   39.6068 C   0  0  0  0  0  0  0  0  0  0  0  0
   30.8636   35.3053   40.4618 C   0  0  0  0  0  0  0  0  0  0  0  0
   29.6497   36.1952   40.6841 C   0  0  0  0  0  0  0  0  0  0  0  0
   29.0548   32.5715   37.8301 N   0  0  0  0  0  0  0  0  0  0  0  0
   29.6329   31.4330   37.3647 C   0  0  0  0  0  0  0  0  0  0  0  0
   29.5951   31.0308   35.9216 C   0  0  0  0  0  0  0  0  0  0  0  0
  1  2  1  0
  2  3  2  0
  2  4  1  0
  4  5  2  0
  5  6  1  0
  6  7  2  0
  7  8  1  0
  8  9  2  0
  9 10  1  0
 10 11  2  0
 11 12  1  0
 12 13  2  0
 13 14  1  0
  8 15  1  0
 15 16  1  0
 16 17  1  0
 17 18  1  0
 18 19  1  0
 19 20  1  0
 20 21  1  0
 21 22  1  0
 22 23  1  0
 23 24  1  0
 20 25  2  0
 25 26  1  0
 26 27  1  0
 13  4  1  0
 27 15  1  0
 12  7  1  0
 26 18  2  0
 24 22  1  0
M  END
>  <AAScore>  (1) 
-6.868717598862272

>  <RootName>  (1) 
./4ZLY/04_DeltaGEst/trajectory_04/rank_01/lead_0134

$$$$
