confid_4
     RDKit          3D

 28 31  0  0  0  0  0  0  0  0999 V2000
   24.5700   26.8800   35.5900 N   0  0  0  0  0  0  0  0  0  0  0  0
   25.5000   26.4000   34.6900 C   0  0  0  0  0  0  0  0  0  0  0  0
   25.1700   25.5200   33.9100 O   0  0  0  0  0  0  0  0  0  0  0  0
   26.8400   27.0200   34.7400 C   0  0  0  0  0  0  0  0  0  0  0  0
   27.3800   27.2800   35.9400 N   0  0  0  0  0  0  0  0  0  0  0  0
   28.6200   27.7400   36.0300 N   0  0  0  0  0  0  0  0  0  0  0  0
   29.3800   28.0000   34.9600 C   0  0  0  0  0  0  0  0  0  0  0  0
   30.6700   28.5000   35.1300 C   0  0  0  0  0  0  0  0  0  0  0  0
   31.5400   28.6100   34.0300 C   0  0  0  0  0  0  0  0  0  0  0  0
   31.0900   28.2200   32.7700 C   0  0  0  0  0  0  0  0  0  0  0  0
   29.8000   27.7000   32.6000 C   0  0  0  0  0  0  0  0  0  0  0  0
   28.9600   27.5500   33.7100 C   0  0  0  0  0  0  0  0  0  0  0  0
   27.6600   27.0300   33.5900 C   0  0  0  0  0  0  0  0  0  0  0  0
   27.1600   26.7400   32.3400 N   0  0  0  0  0  0  0  0  0  0  0  0
   23.1691   26.5469   35.6087 C   0  0  0  0  0  0  0  0  0  0  0  0
   22.6764   25.6799   34.7457 N   0  0  0  0  0  0  0  0  0  0  0  0
   21.3057   25.2109   34.6652 C   0  0  0  0  0  0  0  0  0  0  0  0
   20.2695   25.9982   35.0177 C   0  0  0  0  0  0  0  0  0  0  0  0
   19.5505   25.6547   36.2988 C   0  0  0  0  0  0  0  0  0  0  0  0
   20.1614   26.5790   37.2595 N   0  0  0  0  0  0  0  0  0  0  0  0
   20.1179   26.4030   38.6862 C   0  0  0  0  0  0  0  0  0  0  0  0
   19.4130   25.4756   39.1718 O   0  0  0  0  0  0  0  0  0  0  0  0
   20.9188   27.2871   39.6145 C   0  0  0  0  0  0  0  0  0  0  0  0
   20.0449   27.8047   40.7633 C   0  0  0  0  0  0  0  0  0  0  0  0
   22.1285   26.5191   40.1559 C   0  0  0  0  0  0  0  0  0  0  0  0
   21.0890   27.3900   36.5338 C   0  0  0  0  0  0  0  0  0  0  0  0
   22.3517   27.0938   36.6734 N   0  0  0  0  0  0  0  0  0  0  0  0
   20.5452   27.4493   35.1548 C   0  0  0  0  0  0  0  0  0  0  0  0
  1  2  1  0
  2  3  2  0
  2  4  1  0
  4  5  2  0
  5  6  1  0
  6  7  2  0
  7  8  1  0
  8  9  2  0
  9 10  1  0
 10 11  2  0
 11 12  1  0
 12 13  2  0
 13 14  1  0
  1 15  1  0
 15 16  2  0
 16 17  1  0
 17 18  2  0
 18 19  1  0
 19 20  1  0
 20 21  1  0
 21 22  2  0
 21 23  1  0
 23 24  1  0
 23 25  1  0
 20 26  1  0
 26 27  2  0
 26 28  1  0
 13  4  1  0
 27 15  1  0
 12  7  1  0
 28 18  1  0
M  END
>  <AAScore>  (1) 
467.9179171970552

>  <RootName>  (1) 
./4ZLY/04_DeltaGEst/trajectory_05/rank_00/lead_0073

$$$$
