confid_15
     RDKit          3D

 27 29  0  0  0  0  0  0  0  0999 V2000
   24.5700   26.8800   35.5900 N   0  0  0  0  0  0  0  0  0  0  0  0
   25.5000   26.4000   34.6900 C   0  0  0  0  0  0  0  0  0  0  0  0
   25.1700   25.5200   33.9100 O   0  0  0  0  0  0  0  0  0  0  0  0
   26.8400   27.0200   34.7400 C   0  0  0  0  0  0  0  0  0  0  0  0
   27.3800   27.2800   35.9400 N   0  0  0  0  0  0  0  0  0  0  0  0
   28.6200   27.7400   36.0300 N   0  0  0  0  0  0  0  0  0  0  0  0
   29.3800   28.0000   34.9600 C   0  0  0  0  0  0  0  0  0  0  0  0
   30.6700   28.5000   35.1300 C   0  0  0  0  0  0  0  0  0  0  0  0
   31.5400   28.6100   34.0300 C   0  0  0  0  0  0  0  0  0  0  0  0
   31.0900   28.2200   32.7700 C   0  0  0  0  0  0  0  0  0  0  0  0
   29.8000   27.7000   32.6000 C   0  0  0  0  0  0  0  0  0  0  0  0
   28.9600   27.5500   33.7100 C   0  0  0  0  0  0  0  0  0  0  0  0
   27.6600   27.0300   33.5900 C   0  0  0  0  0  0  0  0  0  0  0  0
   27.1600   26.7400   32.3400 N   0  0  0  0  0  0  0  0  0  0  0  0
   33.1613   29.2756   34.2320 S   0  0  0  0  0  6  0  0  0  0  0  0
   33.6154   29.0432   35.6463 O   0  0  0  0  0  0  0  0  0  0  0  0
   34.0988   28.5165   33.3331 O   0  0  0  0  0  0  0  0  0  0  0  0
   33.2196   31.0569   33.8279 C   0  0  2  0  0  0  0  0  0  0  0  0
   32.0165   31.7557   34.5641 C   0  0  0  0  0  0  0  0  0  0  0  0
   32.1105   31.8797   36.0987 C   0  0  0  0  0  0  0  0  0  0  0  0
   30.7714   32.3057   36.6961 C   0  0  0  0  0  0  0  0  0  0  0  0
   32.9878   31.1794   32.2763 C   0  0  0  0  0  0  0  0  0  0  0  0
   33.5218   32.4155   31.5134 C   0  0  0  0  0  0  0  0  0  0  0  0
   34.6331   31.5822   34.2913 C   0  0  0  0  0  0  0  0  0  0  0  0
   35.1955   32.6511   33.5541 O   0  0  0  0  0  0  0  0  0  0  0  0
   34.3499   33.7783   33.5220 C   0  0  0  0  0  0  0  0  0  0  0  0
   33.4683   33.7564   32.2605 C   0  0  0  0  0  0  0  0  0  0  0  0
  1  2  1  0
  2  3  2  0
  2  4  1  0
  4  5  2  0
  5  6  1  0
  6  7  2  0
  7  8  1  0
  8  9  2  0
  9 10  1  0
 10 11  2  0
 11 12  1  0
 12 13  2  0
 13 14  1  0
  9 15  1  0
 15 16  2  0
 15 17  2  0
 15 18  1  0
 18 19  1  1
 19 20  1  0
 20 21  1  0
 18 22  1  0
 22 23  1  0
 18 24  1  0
 24 25  1  0
 25 26  1  0
 26 27  1  0
 13  4  1  0
 27 23  1  0
 12  7  1  0
M  END
>  <AAScore>  (1) 
-6.329666200975958

>  <RootName>  (1) 
./4ZLY/04_DeltaGEst/trajectory_05/rank_01/lead_0090

$$$$
