confid_17
     RDKit          3D

 27 29  0  0  0  0  0  0  0  0999 V2000
   24.4800   26.1000   36.1300 N   0  0  0  0  0  0  0  0  0  0  0  0
   25.2500   26.2500   34.9900 C   0  0  0  0  0  0  0  0  0  0  0  0
   24.7400   25.7600   33.9900 O   0  0  0  0  0  0  0  0  0  0  0  0
   26.5900   26.8900   34.9600 C   0  0  0  0  0  0  0  0  0  0  0  0
   27.0600   27.2400   36.1600 N   0  0  0  0  0  0  0  0  0  0  0  0
   28.3000   27.7100   36.2400 N   0  0  0  0  0  0  0  0  0  0  0  0
   29.0500   27.9600   35.1500 C   0  0  0  0  0  0  0  0  0  0  0  0
   30.3400   28.4900   35.2600 C   0  0  0  0  0  0  0  0  0  0  0  0
   31.1100   28.8200   34.1400 C   0  0  0  0  0  0  0  0  0  0  0  0
   30.5200   28.6700   32.8800 C   0  0  0  0  0  0  0  0  0  0  0  0
   29.2900   28.0200   32.7700 C   0  0  0  0  0  0  0  0  0  0  0  0
   28.5200   27.7100   33.8900 C   0  0  0  0  0  0  0  0  0  0  0  0
   27.2700   27.0800   33.7600 C   0  0  0  0  0  0  0  0  0  0  0  0
   26.7500   26.8800   32.4900 N   0  0  0  0  0  0  0  0  0  0  0  0
   23.5301   25.0397   36.3555 C   0  0  0  0  0  0  0  0  0  0  0  0
   23.7333   23.7501   35.8354 C   0  0  0  0  0  0  0  0  0  0  0  0
   22.8131   22.7181   36.0834 C   0  0  0  0  0  0  0  0  0  0  0  0
   23.1286   21.1088   35.4078 S   0  0  0  0  0  6  0  0  0  0  0  0
   24.4701   21.0882   34.7263 O   0  0  0  0  0  0  0  0  0  0  0  0
   22.0705   20.7985   34.3859 O   0  0  0  0  0  0  0  0  0  0  0  0
   23.1036   19.9081   36.6754 N   0  0  0  0  0  0  0  0  0  0  0  0
   24.1695   20.1959   37.6435 C   0  0  0  0  0  0  0  0  0  0  0  0
   23.2998   18.5762   36.0903 C   0  0  0  0  0  0  0  0  0  0  0  0
   21.6670   22.9833   36.8722 C   0  0  0  0  0  0  0  0  0  0  0  0
   21.4916   24.2655   37.4178 C   0  0  0  0  0  0  0  0  0  0  0  0
   22.4147   25.2800   37.1645 C   0  0  0  0  0  0  0  0  0  0  0  0
   20.6566   21.9136   37.1940 C   0  0  0  0  0  0  0  0  0  0  0  0
  1  2  1  0
  2  3  2  0
  2  4  1  0
  4  5  2  0
  5  6  1  0
  6  7  2  0
  7  8  1  0
  8  9  2  0
  9 10  1  0
 10 11  2  0
 11 12  1  0
 12 13  2  0
 13 14  1  0
  1 15  1  0
 15 16  2  0
 16 17  1  0
 17 18  1  0
 18 19  2  0
 18 20  2  0
 18 21  1  0
 21 22  1  0
 21 23  1  0
 17 24  2  0
 24 25  1  0
 25 26  2  0
 24 27  1  0
 13  4  1  0
 26 15  1  0
 12  7  1  0
M  END
>  <AAScore>  (1) 
1267.3043415298764

>  <RootName>  (1) 
./4ZLY/04_DeltaGEst/trajectory_00/rank_00/lead_0246

$$$$
