confid_15
     RDKit          3D

 25 28  0  0  0  0  0  0  0  0999 V2000
   24.6900   26.1200   35.5300 N   0  0  0  0  0  0  0  0  0  0  0  0
   25.6600   25.6700   34.6600 C   0  0  0  0  0  0  0  0  0  0  0  0
   25.2400   25.0100   33.7200 O   0  0  0  0  0  0  0  0  0  0  0  0
   27.0300   26.2200   34.8800 C   0  0  0  0  0  0  0  0  0  0  0  0
   27.3500   26.7300   36.0700 N   0  0  0  0  0  0  0  0  0  0  0  0
   28.5700   27.1800   36.3300 N   0  0  0  0  0  0  0  0  0  0  0  0
   29.5300   27.1100   35.3900 C   0  0  0  0  0  0  0  0  0  0  0  0
   30.8300   27.5700   35.6500 C   0  0  0  0  0  0  0  0  0  0  0  0
   31.8500   27.5400   34.6900 C   0  0  0  0  0  0  0  0  0  0  0  0
   31.5100   27.1200   33.4000 C   0  0  0  0  0  0  0  0  0  0  0  0
   30.2200   26.6300   33.1100 C   0  0  0  0  0  0  0  0  0  0  0  0
   29.2400   26.6600   34.1000 C   0  0  0  0  0  0  0  0  0  0  0  0
   27.9300   26.2600   33.8100 C   0  0  0  0  0  0  0  0  0  0  0  0
   27.5200   25.7100   32.6100 N   0  0  0  0  0  0  0  0  0  0  0  0
   31.1915   28.0714   37.0012 C   0  0  0  0  0  0  0  0  0  0  0  0
   32.0547   29.1325   37.2724 C   0  0  0  0  0  0  0  0  0  0  0  0
   32.2552   29.3552   38.6439 C   0  0  0  0  0  0  0  0  0  0  0  0
   33.1586   30.4217   39.1865 C   0  0  0  0  0  0  0  0  0  0  0  0
   32.4645   31.2290   40.1174 O   0  0  0  0  0  0  0  0  0  0  0  0
   32.4707   30.6496   41.4116 C   0  0  0  0  0  0  0  0  0  0  0  0
   31.3622   29.6984   41.5871 N   0  0  0  0  0  0  0  0  0  0  0  0
   31.6196   28.3962   40.9531 C   0  0  0  0  0  0  0  0  0  0  0  0
   31.5590   28.4653   39.4540 C   0  0  0  0  0  0  0  0  0  0  0  0
   30.7083   27.3992   38.4720 S   0  0  0  0  0  0  0  0  0  0  0  0
   30.2249   30.2348   41.0806 F   0  0  0  0  0  0  0  0  0  0  0  0
  1  2  1  0
  2  3  2  0
  2  4  1  0
  4  5  2  0
  5  6  1  0
  6  7  2  0
  7  8  1  0
  8  9  2  0
  9 10  1  0
 10 11  2  0
 11 12  1  0
 12 13  2  0
 13 14  1  0
  8 15  1  0
 15 16  2  0
 16 17  1  0
 17 18  1  0
 18 19  1  0
 19 20  1  0
 20 21  1  0
 21 22  1  0
 22 23  1  0
 23 24  1  0
 21 25  1  0
 13  4  1  0
 24 15  1  0
 12  7  1  0
 23 17  2  0
M  END
>  <AAScore>  (1) 
2.8399547335955893

>  <RootName>  (1) 
./4ZLY/04_DeltaGEst/trajectory_02/rank_01/lead_0141

$$$$
