confid_15
     RDKit          3D

 27 30  0  0  0  0  0  0  0  0999 V2000
   24.6900   26.1200   35.5300 N   0  0  0  0  0  0  0  0  0  0  0  0
   25.6600   25.6700   34.6600 C   0  0  0  0  0  0  0  0  0  0  0  0
   25.2400   25.0100   33.7200 O   0  0  0  0  0  0  0  0  0  0  0  0
   27.0300   26.2200   34.8800 C   0  0  0  0  0  0  0  0  0  0  0  0
   27.3500   26.7300   36.0700 N   0  0  0  0  0  0  0  0  0  0  0  0
   28.5700   27.1800   36.3300 N   0  0  0  0  0  0  0  0  0  0  0  0
   29.5300   27.1100   35.3900 C   0  0  0  0  0  0  0  0  0  0  0  0
   30.8300   27.5700   35.6500 C   0  0  0  0  0  0  0  0  0  0  0  0
   31.8500   27.5400   34.6900 C   0  0  0  0  0  0  0  0  0  0  0  0
   31.5100   27.1200   33.4000 C   0  0  0  0  0  0  0  0  0  0  0  0
   30.2200   26.6300   33.1100 C   0  0  0  0  0  0  0  0  0  0  0  0
   29.2400   26.6600   34.1000 C   0  0  0  0  0  0  0  0  0  0  0  0
   27.9300   26.2600   33.8100 C   0  0  0  0  0  0  0  0  0  0  0  0
   27.5200   25.7100   32.6100 N   0  0  0  0  0  0  0  0  0  0  0  0
   31.1835   28.0729   37.0012 C   0  0  0  0  0  0  0  0  0  0  0  0
   30.9802   27.2731   38.1374 C   0  0  0  0  0  0  0  0  0  0  0  0
   31.3190   27.7455   39.4165 C   0  0  0  0  0  0  0  0  0  0  0  0
   31.0917   26.8801   40.6246 C   0  0  0  0  0  0  0  0  0  0  0  0
   30.0717   27.4178   41.4613 O   0  0  0  0  0  0  0  0  0  0  0  0
   30.1681   28.5980   42.2148 C   0  0  0  0  0  0  0  0  0  0  0  0
   29.5028   28.6661   43.2822 O   0  0  0  0  0  0  0  0  0  0  0  0
   30.8985   29.8466   41.7573 C   0  0  2  0  0  0  0  0  0  0  0  0
   29.9257   30.7864   41.0314 C   0  0  0  0  0  0  0  0  0  0  0  0
   32.1737   29.5862   40.9317 C   0  0  0  0  0  0  0  0  0  0  0  0
   31.8687   29.0326   39.5606 C   0  0  0  0  0  0  0  0  0  0  0  0
   32.0761   29.8277   38.4216 C   0  0  0  0  0  0  0  0  0  0  0  0
   31.7431   29.3495   37.1534 C   0  0  0  0  0  0  0  0  0  0  0  0
  1  2  1  0
  2  3  2  0
  2  4  1  0
  4  5  2  0
  5  6  1  0
  6  7  2  0
  7  8  1  0
  8  9  2  0
  9 10  1  0
 10 11  2  0
 11 12  1  0
 12 13  2  0
 13 14  1  0
  8 15  1  0
 15 16  2  0
 16 17  1  0
 17 18  1  0
 18 19  1  0
 19 20  1  0
 20 21  2  0
 20 22  1  0
 22 23  1  6
 22 24  1  0
 24 25  1  0
 25 26  1  0
 26 27  2  0
 13  4  1  0
 27 15  1  0
 12  7  1  0
 25 17  2  0
M  END
>  <AAScore>  (1) 
3.2489718998397508

>  <RootName>  (1) 
./4ZLY/04_DeltaGEst/trajectory_02/rank_01/lead_0304

$$$$
