confid_0
     RDKit          3D

 28 31  0  0  0  0  0  0  0  0999 V2000
   24.6900   26.1200   35.5300 N   0  0  0  0  0  0  0  0  0  0  0  0
   25.6600   25.6700   34.6600 C   0  0  0  0  0  0  0  0  0  0  0  0
   25.2400   25.0100   33.7200 O   0  0  0  0  0  0  0  0  0  0  0  0
   27.0300   26.2200   34.8800 C   0  0  0  0  0  0  0  0  0  0  0  0
   27.3500   26.7300   36.0700 N   0  0  0  0  0  0  0  0  0  0  0  0
   28.5700   27.1800   36.3300 N   0  0  0  0  0  0  0  0  0  0  0  0
   29.5300   27.1100   35.3900 C   0  0  0  0  0  0  0  0  0  0  0  0
   30.8300   27.5700   35.6500 C   0  0  0  0  0  0  0  0  0  0  0  0
   31.8500   27.5400   34.6900 C   0  0  0  0  0  0  0  0  0  0  0  0
   31.5100   27.1200   33.4000 C   0  0  0  0  0  0  0  0  0  0  0  0
   30.2200   26.6300   33.1100 C   0  0  0  0  0  0  0  0  0  0  0  0
   29.2400   26.6600   34.1000 C   0  0  0  0  0  0  0  0  0  0  0  0
   27.9300   26.2600   33.8100 C   0  0  0  0  0  0  0  0  0  0  0  0
   27.5200   25.7100   32.6100 N   0  0  0  0  0  0  0  0  0  0  0  0
   31.1687   28.0657   36.9180 O   0  0  0  0  0  0  0  0  0  0  0  0
   30.4822   29.0882   37.5924 C   0  0  0  0  0  0  0  0  0  0  0  0
   30.6665   29.2175   38.9689 C   0  0  0  0  0  0  0  0  0  0  0  0
   30.0085   30.2218   39.6753 C   0  0  0  0  0  0  0  0  0  0  0  0
   30.1944   30.3371   41.0136 F   0  0  0  0  0  0  0  0  0  0  0  0
   29.1570   31.1083   39.0118 C   0  0  0  0  0  0  0  0  0  0  0  0
   28.9477   31.0120   37.6156 C   0  0  0  0  0  0  0  0  0  0  0  0
   29.6443   29.9960   36.9177 C   0  0  0  0  0  0  0  0  0  0  0  0
   28.0501   31.9308   36.9177 N   0  0  0  0  0  0  0  0  0  0  0  0
   27.8616   31.7901   35.4581 C   0  0  0  0  0  0  0  0  0  0  0  0
   26.8148   32.7460   34.8841 C   0  0  0  0  0  0  0  0  0  0  0  0
   26.9114   34.0130   35.4889 O   0  0  0  0  0  0  0  0  0  0  0  0
   26.4774   33.9011   36.8230 C   0  0  0  0  0  0  0  0  0  0  0  0
   27.4539   33.0644   37.6571 C   0  0  0  0  0  0  0  0  0  0  0  0
  1  2  1  0
  2  3  2  0
  2  4  1  0
  4  5  2  0
  5  6  1  0
  6  7  2  0
  7  8  1  0
  8  9  2  0
  9 10  1  0
 10 11  2  0
 11 12  1  0
 12 13  2  0
 13 14  1  0
  8 15  1  0
 15 16  1  0
 16 17  2  0
 17 18  1  0
 18 19  1  0
 18 20  2  0
 20 21  1  0
 21 22  2  0
 21 23  1  0
 23 24  1  0
 24 25  1  0
 25 26  1  0
 26 27  1  0
 27 28  1  0
 13  4  1  0
 22 16  1  0
 28 23  1  0
 12  7  1  0
M  END
>  <AAScore>  (1) 
-6.063095030853481

>  <RootName>  (1) 
./4ZLY/04_DeltaGEst/trajectory_02/rank_01/lead_0371

$$$$
