confid_3
     RDKit          3D

 27 30  0  0  0  0  0  0  0  0999 V2000
   24.5700   26.8800   35.5900 N   0  0  0  0  0  0  0  0  0  0  0  0
   25.5000   26.4000   34.6900 C   0  0  0  0  0  0  0  0  0  0  0  0
   25.1700   25.5200   33.9100 O   0  0  0  0  0  0  0  0  0  0  0  0
   26.8400   27.0200   34.7400 C   0  0  0  0  0  0  0  0  0  0  0  0
   27.3800   27.2800   35.9400 N   0  0  0  0  0  0  0  0  0  0  0  0
   28.6200   27.7400   36.0300 N   0  0  0  0  0  0  0  0  0  0  0  0
   29.3800   28.0000   34.9600 C   0  0  0  0  0  0  0  0  0  0  0  0
   30.6700   28.5000   35.1300 C   0  0  0  0  0  0  0  0  0  0  0  0
   31.5400   28.6100   34.0300 C   0  0  0  0  0  0  0  0  0  0  0  0
   31.0900   28.2200   32.7700 C   0  0  0  0  0  0  0  0  0  0  0  0
   29.8000   27.7000   32.6000 C   0  0  0  0  0  0  0  0  0  0  0  0
   28.9600   27.5500   33.7100 C   0  0  0  0  0  0  0  0  0  0  0  0
   27.6600   27.0300   33.5900 C   0  0  0  0  0  0  0  0  0  0  0  0
   27.1600   26.7400   32.3400 N   0  0  0  0  0  0  0  0  0  0  0  0
   23.2127   26.4050   35.6839 C   0  0  0  0  0  0  0  0  0  0  0  0
   22.6267   25.6147   34.7662 N   0  0  0  0  0  0  0  0  0  0  0  0
   21.3635   25.4547   35.2135 C   0  0  0  0  0  0  0  0  0  0  0  0
   21.1175   26.1435   36.3657 N   0  0  0  0  0  0  0  0  0  0  0  0
   19.8828   26.2116   37.1771 C   0  0  0  0  0  0  0  0  0  0  0  0
   18.6628   26.7119   36.3623 C   0  0  0  0  0  0  0  0  0  0  0  0
   17.3538   26.0745   36.8444 C   0  0  0  0  0  0  0  0  0  0  0  0
   17.3717   25.9479   38.3047 N   0  0  0  0  0  0  0  0  0  0  0  0
   18.3319   24.9210   38.7511 C   0  0  0  0  0  0  0  0  0  0  0  0
   19.6254   24.8785   37.9052 C   0  0  0  0  0  0  0  0  0  0  0  0
   22.3034   26.7203   36.6774 C   0  0  0  0  0  0  0  0  0  0  0  0
   22.5626   27.5579   37.8993 C   0  0  0  0  0  0  0  0  0  0  0  0
   20.3703   24.6535   34.4233 C   0  0  0  0  0  0  0  0  0  0  0  0
  1  2  1  0
  2  3  2  0
  2  4  1  0
  4  5  2  0
  5  6  1  0
  6  7  2  0
  7  8  1  0
  8  9  2  0
  9 10  1  0
 10 11  2  0
 11 12  1  0
 12 13  2  0
 13 14  1  0
  1 15  1  0
 15 16  1  0
 16 17  2  0
 17 18  1  0
 18 19  1  0
 19 20  1  0
 20 21  1  0
 21 22  1  0
 22 23  1  0
 23 24  1  0
 18 25  1  0
 25 26  1  0
 17 27  1  0
 13  4  1  0
 25 15  2  0
 12  7  1  0
 24 19  1  0
M  END
>  <AAScore>  (1) 
570.2369191998685

>  <RootName>  (1) 
./4ZLY/04_DeltaGEst/trajectory_05/rank_00/lead_0191

$$$$
