confid_18
     RDKit          3D

 29 32  0  0  0  0  0  0  0  0999 V2000
   24.6900   26.1200   35.5300 N   0  0  0  0  0  0  0  0  0  0  0  0
   25.6600   25.6700   34.6600 C   0  0  0  0  0  0  0  0  0  0  0  0
   25.2400   25.0100   33.7200 O   0  0  0  0  0  0  0  0  0  0  0  0
   27.0300   26.2200   34.8800 C   0  0  0  0  0  0  0  0  0  0  0  0
   27.3500   26.7300   36.0700 N   0  0  0  0  0  0  0  0  0  0  0  0
   28.5700   27.1800   36.3300 N   0  0  0  0  0  0  0  0  0  0  0  0
   29.5300   27.1100   35.3900 C   0  0  0  0  0  0  0  0  0  0  0  0
   30.8300   27.5700   35.6500 C   0  0  0  0  0  0  0  0  0  0  0  0
   31.8500   27.5400   34.6900 C   0  0  0  0  0  0  0  0  0  0  0  0
   31.5100   27.1200   33.4000 C   0  0  0  0  0  0  0  0  0  0  0  0
   30.2200   26.6300   33.1100 C   0  0  0  0  0  0  0  0  0  0  0  0
   29.2400   26.6600   34.1000 C   0  0  0  0  0  0  0  0  0  0  0  0
   27.9300   26.2600   33.8100 C   0  0  0  0  0  0  0  0  0  0  0  0
   27.5200   25.7100   32.6100 N   0  0  0  0  0  0  0  0  0  0  0  0
   31.1424   28.0604   36.9613 N   0  0  0  0  0  0  0  0  0  0  0  0
   31.9899   27.2564   37.8471 C   0  0  0  0  0  0  0  0  0  0  0  0
   31.9163   27.7775   39.2829 C   0  0  0  0  0  0  0  0  0  0  0  0
   30.5322   28.2026   39.5619 N   0  0  0  0  0  0  0  0  0  0  0  0
   30.3105   28.4016   41.0088 C   0  0  0  0  0  0  0  0  0  0  0  0
   30.1826   27.0698   41.7262 C   0  0  0  0  0  0  0  0  0  0  0  0
   30.7843   26.8124   42.9901 C   0  0  0  0  0  0  0  0  0  0  0  0
   31.6137   27.8385   43.7301 C   0  0  0  0  0  0  0  0  0  0  0  0
   33.0677   27.8089   43.2653 C   0  0  0  0  0  0  0  0  0  0  0  0
   30.6340   25.5406   43.5739 C   0  0  0  0  0  0  0  0  0  0  0  0
   29.8665   24.5553   42.9533 C   0  0  0  0  0  0  0  0  0  0  0  0
   29.2351   24.8228   41.7418 C   0  0  0  0  0  0  0  0  0  0  0  0
   29.3846   26.0697   41.1359 C   0  0  0  0  0  0  0  0  0  0  0  0
   30.2014   29.4346   38.8107 C   0  0  0  0  0  0  0  0  0  0  0  0
   30.7217   29.4089   37.3562 C   0  0  0  0  0  0  0  0  0  0  0  0
  1  2  1  0
  2  3  2  0
  2  4  1  0
  4  5  2  0
  5  6  1  0
  6  7  2  0
  7  8  1  0
  8  9  2  0
  9 10  1  0
 10 11  2  0
 11 12  1  0
 12 13  2  0
 13 14  1  0
  8 15  1  0
 15 16  1  0
 16 17  1  0
 17 18  1  0
 18 19  1  0
 19 20  1  0
 20 21  2  0
 21 22  1  0
 22 23  1  0
 21 24  1  0
 24 25  2  0
 25 26  1  0
 26 27  2  0
 18 28  1  0
 28 29  1  0
 13  4  1  0
 29 15  1  0
 12  7  1  0
 27 20  1  0
M  END
>  <AAScore>  (1) 
444.7647025382148

>  <RootName>  (1) 
./4ZLY/04_DeltaGEst/trajectory_02/rank_01/lead_0113

$$$$
