confid_18
     RDKit          3D

 28 31  0  0  0  0  0  0  0  0999 V2000
   24.5700   26.8800   35.5900 N   0  0  0  0  0  0  0  0  0  0  0  0
   25.5000   26.4000   34.6900 C   0  0  0  0  0  0  0  0  0  0  0  0
   25.1700   25.5200   33.9100 O   0  0  0  0  0  0  0  0  0  0  0  0
   26.8400   27.0200   34.7400 C   0  0  0  0  0  0  0  0  0  0  0  0
   27.3800   27.2800   35.9400 N   0  0  0  0  0  0  0  0  0  0  0  0
   28.6200   27.7400   36.0300 N   0  0  0  0  0  0  0  0  0  0  0  0
   29.3800   28.0000   34.9600 C   0  0  0  0  0  0  0  0  0  0  0  0
   30.6700   28.5000   35.1300 C   0  0  0  0  0  0  0  0  0  0  0  0
   31.5400   28.6100   34.0300 C   0  0  0  0  0  0  0  0  0  0  0  0
   31.0900   28.2200   32.7700 C   0  0  0  0  0  0  0  0  0  0  0  0
   29.8000   27.7000   32.6000 C   0  0  0  0  0  0  0  0  0  0  0  0
   28.9600   27.5500   33.7100 C   0  0  0  0  0  0  0  0  0  0  0  0
   27.6600   27.0300   33.5900 C   0  0  0  0  0  0  0  0  0  0  0  0
   27.1600   26.7400   32.3400 N   0  0  0  0  0  0  0  0  0  0  0  0
   23.1488   26.6944   35.4690 C   0  0  0  0  0  0  0  0  0  0  0  0
   22.3972   26.6072   36.5969 N   0  0  0  0  0  0  0  0  0  0  0  0
   21.0474   26.4636   36.5585 C   0  0  0  0  0  0  0  0  0  0  0  0
   20.3641   26.3997   35.3324 C   0  0  0  0  0  0  0  0  0  0  0  0
   18.8426   26.3634   35.3907 C   0  0  0  0  0  0  0  0  0  0  0  0
   18.1325   25.9999   34.1465 N   0  0  0  0  0  0  0  0  0  0  0  0
   17.6793   27.1520   33.3501 C   0  0  0  0  0  0  0  0  0  0  0  0
   18.7197   24.8820   33.3844 C   0  0  0  0  0  0  0  0  0  0  0  0
   19.8222   25.3189   32.4055 C   0  0  0  0  0  0  0  0  0  0  0  0
   20.7026   24.2690   32.2072 F   0  0  0  0  0  0  0  0  0  0  0  0
   19.2558   25.6429   31.1854 F   0  0  0  0  0  0  0  0  0  0  0  0
   20.5427   26.4497   32.8824 O   0  0  0  0  0  0  0  0  0  0  0  0
   21.1260   26.4998   34.1464 C   0  0  0  0  0  0  0  0  0  0  0  0
   22.5114   26.6704   34.2202 C   0  0  0  0  0  0  0  0  0  0  0  0
  1  2  1  0
  2  3  2  0
  2  4  1  0
  4  5  2  0
  5  6  1  0
  6  7  2  0
  7  8  1  0
  8  9  2  0
  9 10  1  0
 10 11  2  0
 11 12  1  0
 12 13  2  0
 13 14  1  0
  1 15  1  0
 15 16  2  0
 16 17  1  0
 17 18  2  0
 18 19  1  0
 19 20  1  0
 20 21  1  0
 20 22  1  0
 22 23  1  0
 23 24  1  0
 23 25  1  0
 23 26  1  0
 26 27  1  0
 27 28  2  0
 13  4  1  0
 28 15  1  0
 12  7  1  0
 27 18  1  0
M  END
>  <AAScore>  (1) 
1226.5975177746643

>  <RootName>  (1) 
./4ZLY/04_DeltaGEst/trajectory_05/rank_00/lead_0465

$$$$
