confid_1
     RDKit          3D

 27 30  0  0  0  0  0  0  0  0999 V2000
   24.2000   26.2400   35.6900 N   0  0  0  0  0  0  0  0  0  0  0  0
   24.8500   26.2800   34.4800 C   0  0  0  0  0  0  0  0  0  0  0  0
   24.3100   25.7400   33.5400 O   0  0  0  0  0  0  0  0  0  0  0  0
   26.1800   26.9700   34.4700 C   0  0  0  0  0  0  0  0  0  0  0  0
   26.6500   27.6000   35.5500 N   0  0  0  0  0  0  0  0  0  0  0  0
   27.7900   28.2700   35.6200 N   0  0  0  0  0  0  0  0  0  0  0  0
   28.5400   28.3000   34.5100 C   0  0  0  0  0  0  0  0  0  0  0  0
   29.7700   28.9400   34.5600 C   0  0  0  0  0  0  0  0  0  0  0  0
   30.7000   28.8900   33.5000 C   0  0  0  0  0  0  0  0  0  0  0  0
   30.3700   28.1400   32.3700 C   0  0  0  0  0  0  0  0  0  0  0  0
   29.1200   27.5200   32.2800 C   0  0  0  0  0  0  0  0  0  0  0  0
   28.2100   27.6100   33.3300 C   0  0  0  0  0  0  0  0  0  0  0  0
   26.9700   26.9700   33.3100 C   0  0  0  0  0  0  0  0  0  0  0  0
   26.5300   26.2400   32.2200 N   0  0  0  0  0  0  0  0  0  0  0  0
   30.1533   29.6773   35.7410 N   0  0  0  0  0  0  0  0  0  0  0  0
   30.2594   29.0080   37.0436 C   0  0  0  0  0  0  0  0  0  0  0  0
   31.5969   29.3070   37.7293 C   0  0  0  0  0  0  0  0  0  0  0  0
   32.7707   29.2257   36.7434 C   0  0  0  0  0  0  0  0  0  0  0  0
   32.9478   30.4569   35.9500 N   0  0  0  0  0  0  0  0  0  0  0  0
   34.2473   30.6791   35.3098 C   0  0  0  0  0  0  0  0  0  0  0  0
   31.9006   31.4279   35.7103 C   0  0  0  0  0  0  0  0  0  0  0  0
   32.2454   32.7324   35.5217 N   0  0  0  0  0  0  0  0  0  0  0  0
   31.3299   33.6998   35.2648 C   0  0  0  0  0  0  0  0  0  0  0  0
   29.9783   33.3779   35.1825 C   0  0  0  0  0  0  0  0  0  0  0  0
   29.5686   32.0516   35.3681 C   0  0  0  0  0  0  0  0  0  0  0  0
   28.1078   31.7083   35.2705 C   0  0  0  0  0  0  0  0  0  0  0  0
   30.5390   31.0565   35.6182 C   0  0  0  0  0  0  0  0  0  0  0  0
  1  2  1  0
  2  3  2  0
  2  4  1  0
  4  5  2  0
  5  6  1  0
  6  7  2  0
  7  8  1  0
  8  9  2  0
  9 10  1  0
 10 11  2  0
 11 12  1  0
 12 13  2  0
 13 14  1  0
  8 15  1  0
 15 16  1  0
 16 17  1  0
 17 18  1  0
 18 19  1  0
 19 20  1  0
 19 21  1  0
 21 22  2  0
 22 23  1  0
 23 24  2  0
 24 25  1  0
 25 26  1  0
 25 27  2  0
 13  4  1  0
 27 15  1  0
 12  7  1  0
 27 21  1  0
M  END
>  <AAScore>  (1) 
-2.362946446301373

>  <RootName>  (1) 
./4ZLY/04_DeltaGEst/trajectory_04/rank_01/lead_0317

$$$$
