confid_7
     RDKit          3D

 28 31  0  0  0  0  0  0  0  0999 V2000
   24.5500   26.3900   36.2500 N   0  0  0  0  0  0  0  0  0  0  0  0
   25.6000   26.1300   35.4000 C   0  0  0  0  0  0  0  0  0  0  0  0
   25.4300   25.4300   34.4200 O   0  0  0  0  0  0  0  0  0  0  0  0
   26.9800   26.6300   35.7100 C   0  0  0  0  0  0  0  0  0  0  0  0
   27.3200   26.8200   36.9800 N   0  0  0  0  0  0  0  0  0  0  0  0
   28.4700   27.4000   37.3100 N   0  0  0  0  0  0  0  0  0  0  0  0
   29.4000   27.6300   36.3700 C   0  0  0  0  0  0  0  0  0  0  0  0
   30.6600   28.0500   36.8000 C   0  0  0  0  0  0  0  0  0  0  0  0
   31.5700   28.3600   35.7800 C   0  0  0  0  0  0  0  0  0  0  0  0
   31.3700   28.1000   34.4300 C   0  0  0  0  0  0  0  0  0  0  0  0
   30.1200   27.5900   34.0500 C   0  0  0  0  0  0  0  0  0  0  0  0
   29.1500   27.3400   35.0300 C   0  0  0  0  0  0  0  0  0  0  0  0
   27.8800   26.8900   34.6600 C   0  0  0  0  0  0  0  0  0  0  0  0
   27.4800   26.6100   33.3700 N   0  0  0  0  0  0  0  0  0  0  0  0
   23.1762   25.8945   36.0706 C   0  0  0  0  0  0  0  0  0  0  0  0
   23.1205   24.3411   36.0777 C   0  0  0  0  0  0  0  0  0  0  0  0
   22.5491   23.7478   34.7833 C   0  0  0  0  0  0  0  0  0  0  0  0
   21.2924   24.4178   34.4241 N   0  0  0  0  0  0  0  0  0  0  0  0
   20.1659   23.6549   33.9582 C   0  0  0  0  0  0  0  0  0  0  0  0
   18.8621   23.8219   34.3773 C   0  0  0  0  0  0  0  0  0  0  0  0
   18.1573   22.8883   33.6382 C   0  0  0  0  0  0  0  0  0  0  0  0
   18.9874   22.2293   32.8036 N   0  0  0  0  0  0  0  0  0  0  0  0
   20.2085   22.7001   33.0032 N   0  0  0  0  0  0  0  0  0  0  0  0
   21.3687   22.2593   32.2369 C   0  0  0  0  0  0  0  0  0  0  0  0
   16.6751   22.6848   33.6714 C   0  0  0  0  0  0  0  0  0  0  0  0
   15.9845   23.5987   32.6659 C   0  0  0  0  0  0  0  0  0  0  0  0
   21.1647   25.8775   34.5370 C   0  0  0  0  0  0  0  0  0  0  0  0
   22.5169   26.5345   34.8318 C   0  0  0  0  0  0  0  0  0  0  0  0
  1  2  1  0
  2  3  2  0
  2  4  1  0
  4  5  2  0
  5  6  1  0
  6  7  2  0
  7  8  1  0
  8  9  2  0
  9 10  1  0
 10 11  2  0
 11 12  1  0
 12 13  2  0
 13 14  1  0
  1 15  1  0
 15 16  1  0
 16 17  1  0
 17 18  1  0
 18 19  1  0
 19 20  2  0
 20 21  1  0
 21 22  2  0
 22 23  1  0
 23 24  1  0
 21 25  1  0
 25 26  1  0
 18 27  1  0
 27 28  1  0
 13  4  1  0
 28 15  1  0
 12  7  1  0
 23 19  1  0
M  END
>  <AAScore>  (1) 
1496.986139109889

>  <RootName>  (1) 
./4ZLY/04_DeltaGEst/trajectory_01/rank_00/lead_0174

$$$$
