confid_19
     RDKit          3D

 30 33  0  0  0  0  0  0  0  0999 V2000
   24.2000   26.2400   35.6900 N   0  0  0  0  0  0  0  0  0  0  0  0
   24.8500   26.2800   34.4800 C   0  0  0  0  0  0  0  0  0  0  0  0
   24.3100   25.7400   33.5400 O   0  0  0  0  0  0  0  0  0  0  0  0
   26.1800   26.9700   34.4700 C   0  0  0  0  0  0  0  0  0  0  0  0
   26.6500   27.6000   35.5500 N   0  0  0  0  0  0  0  0  0  0  0  0
   27.7900   28.2700   35.6200 N   0  0  0  0  0  0  0  0  0  0  0  0
   28.5400   28.3000   34.5100 C   0  0  0  0  0  0  0  0  0  0  0  0
   29.7700   28.9400   34.5600 C   0  0  0  0  0  0  0  0  0  0  0  0
   30.7000   28.8900   33.5000 C   0  0  0  0  0  0  0  0  0  0  0  0
   30.3700   28.1400   32.3700 C   0  0  0  0  0  0  0  0  0  0  0  0
   29.1200   27.5200   32.2800 C   0  0  0  0  0  0  0  0  0  0  0  0
   28.2100   27.6100   33.3300 C   0  0  0  0  0  0  0  0  0  0  0  0
   26.9700   26.9700   33.3100 C   0  0  0  0  0  0  0  0  0  0  0  0
   26.5300   26.2400   32.2200 N   0  0  0  0  0  0  0  0  0  0  0  0
   30.1405   29.6816   35.7352 N   0  0  0  0  0  0  0  0  0  0  0  0
   31.2035   29.1709   36.6043 C   0  0  0  0  0  0  0  0  0  0  0  0
   31.5423   30.1923   37.6986 C   0  0  0  0  0  0  0  0  0  0  0  0
   31.6016   31.5630   37.1499 N   0  0  0  0  0  0  0  0  0  0  0  0
   32.7368   31.7402   36.2145 C   0  0  0  0  0  0  0  0  0  0  0  0
   33.2636   33.1893   36.2581 C   0  0  1  0  0  0  0  0  0  0  0  0
   33.8151   33.5350   37.6565 C   0  0  0  0  0  0  0  0  0  0  0  0
   34.3742   34.9626   37.6935 C   0  0  0  0  0  0  0  0  0  0  0  0
   35.4694   35.1627   36.6274 C   0  0  2  0  0  0  0  0  0  0  0  0
   35.9990   36.6093   36.6809 C   0  0  0  0  0  0  0  0  0  0  0  0
   37.1899   36.7796   35.8374 C   0  0  0  0  0  0  0  0  0  0  0  0
   38.1279   36.9136   35.1732 N   0  0  0  0  0  0  0  0  0  0  0  0
   34.9137   34.8176   35.2284 C   0  0  0  0  0  0  0  0  0  0  0  0
   34.3575   33.3890   35.1915 C   0  0  0  0  0  0  0  0  0  0  0  0
   30.3063   32.0097   36.5682 C   0  0  0  0  0  0  0  0  0  0  0  0
   29.3699   30.8596   36.1427 C   0  0  0  0  0  0  0  0  0  0  0  0
  1  2  1  0
  2  3  2  0
  2  4  1  0
  4  5  2  0
  5  6  1  0
  6  7  2  0
  7  8  1  0
  8  9  2  0
  9 10  1  0
 10 11  2  0
 11 12  1  0
 12 13  2  0
 13 14  1  0
  8 15  1  0
 15 16  1  0
 16 17  1  0
 17 18  1  0
 18 19  1  0
 20 19  1  1
 20 21  1  0
 21 22  1  0
 22 23  1  0
 23 24  1  6
 24 25  1  0
 25 26  3  0
 23 27  1  0
 27 28  1  0
 18 29  1  0
 29 30  1  0
 13  4  1  0
 30 15  1  0
 12  7  1  0
 28 20  1  0
M  END
>  <AAScore>  (1) 
-7.530499045425797

>  <RootName>  (1) 
./4ZLY/04_DeltaGEst/trajectory_04/rank_01/lead_0116

$$$$
