confid_10
     RDKit          3D

 28 31  0  0  0  0  0  0  0  0999 V2000
   25.3300   26.2600   34.7600 N   0  0  0  0  0  0  0  0  0  0  0  0
   26.1200   25.9200   33.6900 C   0  0  0  0  0  0  0  0  0  0  0  0
   25.6300   25.1100   32.9400 O   0  0  0  0  0  0  0  0  0  0  0  0
   27.5200   26.3800   33.4600 C   0  0  0  0  0  0  0  0  0  0  0  0
   28.1600   26.6300   34.6100 N   0  0  0  0  0  0  0  0  0  0  0  0
   29.4800   26.8500   34.5700 N   0  0  0  0  0  0  0  0  0  0  0  0
   30.1900   26.7800   33.4400 C   0  0  0  0  0  0  0  0  0  0  0  0
   31.5600   27.0500   33.5000 C   0  0  0  0  0  0  0  0  0  0  0  0
   32.2700   27.2400   32.3100 C   0  0  0  0  0  0  0  0  0  0  0  0
   31.6100   27.2500   31.0800 C   0  0  0  0  0  0  0  0  0  0  0  0
   30.2700   26.8700   31.0600 C   0  0  0  0  0  0  0  0  0  0  0  0
   29.5100   26.6900   32.2300 C   0  0  0  0  0  0  0  0  0  0  0  0
   28.1400   26.4100   32.2000 C   0  0  0  0  0  0  0  0  0  0  0  0
   27.4300   26.1300   31.0500 N   0  0  0  0  0  0  0  0  0  0  0  0
   26.5195   27.1355   30.4948 C   0  0  0  0  0  0  0  0  0  0  0  0
   26.6267   27.1490   28.9683 C   0  0  0  0  0  0  0  0  0  0  0  0
   26.5278   25.7936   28.4036 N   0  0  0  0  0  0  0  0  0  0  0  0
   26.3399   25.6532   26.9799 C   0  0  0  0  0  0  0  0  0  0  0  0
   25.6083   24.5801   26.4399 C   0  0  0  0  0  0  0  0  0  0  0  0
   25.4374   24.4800   25.0466 C   0  0  0  0  0  0  0  0  0  0  0  0
   24.7207   23.4278   24.4545 O   0  0  0  0  0  0  0  0  0  0  0  0
   24.1057   22.3649   25.1753 C   0  0  0  0  0  0  0  0  0  0  0  0
   25.9973   25.4634   24.2209 C   0  0  0  0  0  0  0  0  0  0  0  0
   25.8126   25.3855   22.4755 Cl  0  0  0  0  0  0  0  0  0  0  0  0
   26.7046   26.5225   24.7928 C   0  0  0  0  0  0  0  0  0  0  0  0
   26.8554   26.5937   26.1404 N   0  0  0  0  0  0  0  0  0  0  0  0
   26.5527   24.6165   29.2873 C   0  0  0  0  0  0  0  0  0  0  0  0
   27.5660   24.8088   30.4216 C   0  0  0  0  0  0  0  0  0  0  0  0
  1  2  1  0
  2  3  2  0
  2  4  1  0
  4  5  2  0
  5  6  1  0
  6  7  2  0
  7  8  1  0
  8  9  2  0
  9 10  1  0
 10 11  2  0
 11 12  1  0
 12 13  2  0
 13 14  1  0
 14 15  1  0
 15 16  1  0
 16 17  1  0
 17 18  1  0
 18 19  2  0
 19 20  1  0
 20 21  1  0
 21 22  1  0
 20 23  2  0
 23 24  1  0
 23 25  1  0
 25 26  2  0
 17 27  1  0
 27 28  1  0
 13  4  1  0
 28 14  1  0
 12  7  1  0
 26 18  1  0
M  END
>  <AAScore>  (1) 
3.137075188157448

>  <RootName>  (1) 
./4ZLY/04_DeltaGEst/trajectory_03/rank_01/lead_0217

$$$$
