confid_4
     RDKit          3D

 29 33  0  0  0  0  0  0  0  0999 V2000
   24.6900   26.1200   35.5300 N   0  0  0  0  0  0  0  0  0  0  0  0
   25.6600   25.6700   34.6600 C   0  0  0  0  0  0  0  0  0  0  0  0
   25.2400   25.0100   33.7200 O   0  0  0  0  0  0  0  0  0  0  0  0
   27.0300   26.2200   34.8800 C   0  0  0  0  0  0  0  0  0  0  0  0
   27.3500   26.7300   36.0700 N   0  0  0  0  0  0  0  0  0  0  0  0
   28.5700   27.1800   36.3300 N   0  0  0  0  0  0  0  0  0  0  0  0
   29.5300   27.1100   35.3900 C   0  0  0  0  0  0  0  0  0  0  0  0
   30.8300   27.5700   35.6500 C   0  0  0  0  0  0  0  0  0  0  0  0
   31.8500   27.5400   34.6900 C   0  0  0  0  0  0  0  0  0  0  0  0
   31.5100   27.1200   33.4000 C   0  0  0  0  0  0  0  0  0  0  0  0
   30.2200   26.6300   33.1100 C   0  0  0  0  0  0  0  0  0  0  0  0
   29.2400   26.6600   34.1000 C   0  0  0  0  0  0  0  0  0  0  0  0
   27.9300   26.2600   33.8100 C   0  0  0  0  0  0  0  0  0  0  0  0
   27.5200   25.7100   32.6100 N   0  0  0  0  0  0  0  0  0  0  0  0
   31.1468   28.0526   36.9619 N   0  0  0  0  0  0  0  0  0  0  0  0
   31.7697   27.1393   37.9285 C   0  0  0  0  0  0  0  0  0  0  0  0
   31.8451   27.7817   39.3160 C   0  0  0  0  0  0  0  0  0  0  0  0
   30.5678   28.4443   39.6165 N   0  0  0  0  0  0  0  0  0  0  0  0
   29.7837   28.0566   40.7628 C   0  0  0  0  0  0  0  0  0  0  0  0
   29.5960   26.7003   41.0751 C   0  0  0  0  0  0  0  0  0  0  0  0
   28.8102   26.3460   42.1732 C   0  0  0  0  0  0  0  0  0  0  0  0
   28.2340   27.3092   42.9374 N   0  0  0  0  0  0  0  0  0  0  0  0
   28.4003   28.6332   42.6708 C   0  0  0  0  0  0  0  0  0  0  0  0
   29.1632   29.0289   41.5633 C   0  0  0  0  0  0  0  0  0  0  0  0
   27.7030   29.6543   43.5225 C   0  0  0  0  0  0  0  0  0  0  0  0
   27.9678   29.5224   45.0159 C   0  0  0  0  0  0  0  0  0  0  0  0
   28.6206   30.6444   44.2269 C   0  0  0  0  0  0  0  0  0  0  0  0
   30.0231   29.4267   38.6642 C   0  0  0  0  0  0  0  0  0  0  0  0
   30.8034   29.4275   37.3419 C   0  0  0  0  0  0  0  0  0  0  0  0
  1  2  1  0
  2  3  2  0
  2  4  1  0
  4  5  2  0
  5  6  1  0
  6  7  2  0
  7  8  1  0
  8  9  2  0
  9 10  1  0
 10 11  2  0
 11 12  1  0
 12 13  2  0
 13 14  1  0
  8 15  1  0
 15 16  1  0
 16 17  1  0
 17 18  1  0
 18 19  1  0
 19 20  2  0
 20 21  1  0
 21 22  2  0
 22 23  1  0
 23 24  2  0
 23 25  1  0
 25 26  1  0
 26 27  1  0
 18 28  1  0
 28 29  1  0
 13  4  1  0
 29 15  1  0
 12  7  1  0
 24 19  1  0
 27 25  1  0
M  END
>  <AAScore>  (1) 
24.23691566655348

>  <RootName>  (1) 
./4ZLY/04_DeltaGEst/trajectory_02/rank_01/lead_0224

$$$$
