confid_2
     RDKit          3D

 28 31  0  0  0  0  0  0  0  0999 V2000
   24.5700   26.8800   35.5900 N   0  0  0  0  0  0  0  0  0  0  0  0
   25.5000   26.4000   34.6900 C   0  0  0  0  0  0  0  0  0  0  0  0
   25.1700   25.5200   33.9100 O   0  0  0  0  0  0  0  0  0  0  0  0
   26.8400   27.0200   34.7400 C   0  0  0  0  0  0  0  0  0  0  0  0
   27.3800   27.2800   35.9400 N   0  0  0  0  0  0  0  0  0  0  0  0
   28.6200   27.7400   36.0300 N   0  0  0  0  0  0  0  0  0  0  0  0
   29.3800   28.0000   34.9600 C   0  0  0  0  0  0  0  0  0  0  0  0
   30.6700   28.5000   35.1300 C   0  0  0  0  0  0  0  0  0  0  0  0
   31.5400   28.6100   34.0300 C   0  0  0  0  0  0  0  0  0  0  0  0
   31.0900   28.2200   32.7700 C   0  0  0  0  0  0  0  0  0  0  0  0
   29.8000   27.7000   32.6000 C   0  0  0  0  0  0  0  0  0  0  0  0
   28.9600   27.5500   33.7100 C   0  0  0  0  0  0  0  0  0  0  0  0
   27.6600   27.0300   33.5900 C   0  0  0  0  0  0  0  0  0  0  0  0
   27.1600   26.7400   32.3400 N   0  0  0  0  0  0  0  0  0  0  0  0
   23.4202   26.1464   36.0470 C   0  0  0  0  0  0  0  0  0  0  0  0
   22.3258   26.8336   36.4711 N   0  0  0  0  0  0  0  0  0  0  0  0
   21.2162   26.2078   36.9427 C   0  0  0  0  0  0  0  0  0  0  0  0
   21.1732   24.8094   37.0263 C   0  0  0  0  0  0  0  0  0  0  0  0
   19.9000   24.1240   37.4586 C   0  0  0  0  0  0  0  0  0  0  0  0
   20.1342   22.7636   37.9765 N   0  0  0  0  0  0  0  0  0  0  0  0
   20.6781   22.7795   39.3447 C   0  0  0  0  0  0  0  0  0  0  0  0
   20.9277   21.9502   37.0336 C   0  0  0  0  0  0  0  0  0  0  0  0
   22.3163   22.5525   36.7031 C   0  0  1  0  0  0  0  0  0  0  0  0
   22.2943   24.0661   36.6127 C   0  0  0  0  0  0  0  0  0  0  0  0
   23.4231   24.7440   36.1262 C   0  0  0  0  0  0  0  0  0  0  0  0
   23.3788   22.0519   37.6657 C   0  0  0  0  0  0  0  0  0  0  0  0
   23.7732   22.7559   38.5850 O   0  0  0  0  0  0  0  0  0  0  0  0
   23.9483   20.6722   37.5178 C   0  0  0  0  0  0  0  0  0  0  0  0
  1  2  1  0
  2  3  2  0
  2  4  1  0
  4  5  2  0
  5  6  1  0
  6  7  2  0
  7  8  1  0
  8  9  2  0
  9 10  1  0
 10 11  2  0
 11 12  1  0
 12 13  2  0
 13 14  1  0
  1 15  1  0
 15 16  2  0
 16 17  1  0
 17 18  2  0
 18 19  1  0
 19 20  1  0
 20 21  1  0
 20 22  1  0
 22 23  1  0
 23 24  1  0
 24 25  2  0
 23 26  1  1
 26 27  2  0
 26 28  1  0
 13  4  1  0
 25 15  1  0
 12  7  1  0
 24 18  1  0
M  END
>  <AAScore>  (1) 
2000.615304753994

>  <RootName>  (1) 
./4ZLY/04_DeltaGEst/trajectory_05/rank_00/lead_0052

$$$$
