confid_0
     RDKit          3D

 28 31  0  0  0  0  0  0  0  0999 V2000
   25.3300   26.2600   34.7600 N   0  0  0  0  0  0  0  0  0  0  0  0
   26.1200   25.9200   33.6900 C   0  0  0  0  0  0  0  0  0  0  0  0
   25.6300   25.1100   32.9400 O   0  0  0  0  0  0  0  0  0  0  0  0
   27.5200   26.3800   33.4600 C   0  0  0  0  0  0  0  0  0  0  0  0
   28.1600   26.6300   34.6100 N   0  0  0  0  0  0  0  0  0  0  0  0
   29.4800   26.8500   34.5700 N   0  0  0  0  0  0  0  0  0  0  0  0
   30.1900   26.7800   33.4400 C   0  0  0  0  0  0  0  0  0  0  0  0
   31.5600   27.0500   33.5000 C   0  0  0  0  0  0  0  0  0  0  0  0
   32.2700   27.2400   32.3100 C   0  0  0  0  0  0  0  0  0  0  0  0
   31.6100   27.2500   31.0800 C   0  0  0  0  0  0  0  0  0  0  0  0
   30.2700   26.8700   31.0600 C   0  0  0  0  0  0  0  0  0  0  0  0
   29.5100   26.6900   32.2300 C   0  0  0  0  0  0  0  0  0  0  0  0
   28.1400   26.4100   32.2000 C   0  0  0  0  0  0  0  0  0  0  0  0
   27.4300   26.1300   31.0500 N   0  0  0  0  0  0  0  0  0  0  0  0
   26.4874   27.1212   30.5149 C   0  0  0  0  0  0  0  0  0  0  0  0
   26.5104   27.1665   28.9681 C   0  0  0  0  0  0  0  0  0  0  0  0
   27.1583   25.9854   28.3474 N   0  0  0  0  0  0  0  0  0  0  0  0
   26.7722   25.8751   26.9247 C   0  0  0  0  0  0  0  0  0  0  0  0
   27.7048   24.9508   26.1814 C   0  0  0  0  0  0  0  0  0  0  0  0
   27.2338   23.7199   25.6877 C   0  0  0  0  0  0  0  0  0  0  0  0
   28.0989   22.8545   25.0104 C   0  0  0  0  0  0  0  0  0  0  0  0
   29.4375   23.2091   24.8207 C   0  0  0  0  0  0  0  0  0  0  0  0
   30.2741   22.3679   24.1599 F   0  0  0  0  0  0  0  0  0  0  0  0
   29.9145   24.4264   25.3185 C   0  0  0  0  0  0  0  0  0  0  0  0
   29.0576   25.2960   25.9990 C   0  0  0  0  0  0  0  0  0  0  0  0
   29.5369   26.4699   26.4804 F   0  0  0  0  0  0  0  0  0  0  0  0
   26.8314   24.7554   29.0938 C   0  0  0  0  0  0  0  0  0  0  0  0
   27.5580   24.8019   30.4360 C   0  0  0  0  0  0  0  0  0  0  0  0
  1  2  1  0
  2  3  2  0
  2  4  1  0
  4  5  2  0
  5  6  1  0
  6  7  2  0
  7  8  1  0
  8  9  2  0
  9 10  1  0
 10 11  2  0
 11 12  1  0
 12 13  2  0
 13 14  1  0
 14 15  1  0
 15 16  1  0
 16 17  1  0
 17 18  1  0
 18 19  1  0
 19 20  2  0
 20 21  1  0
 21 22  2  0
 22 23  1  0
 22 24  1  0
 24 25  2  0
 25 26  1  0
 17 27  1  0
 27 28  1  0
 13  4  1  0
 28 14  1  0
 12  7  1  0
 25 19  1  0
M  END
>  <AAScore>  (1) 
-2.569920651165944

>  <RootName>  (1) 
./4ZLY/04_DeltaGEst/trajectory_03/rank_01/lead_0385

$$$$
