confid_1
     RDKit          3D

 27 30  0  0  0  0  0  0  0  0999 V2000
   24.5500   26.3900   36.2500 N   0  0  0  0  0  0  0  0  0  0  0  0
   25.6000   26.1300   35.4000 C   0  0  0  0  0  0  0  0  0  0  0  0
   25.4300   25.4300   34.4200 O   0  0  0  0  0  0  0  0  0  0  0  0
   26.9800   26.6300   35.7100 C   0  0  0  0  0  0  0  0  0  0  0  0
   27.3200   26.8200   36.9800 N   0  0  0  0  0  0  0  0  0  0  0  0
   28.4700   27.4000   37.3100 N   0  0  0  0  0  0  0  0  0  0  0  0
   29.4000   27.6300   36.3700 C   0  0  0  0  0  0  0  0  0  0  0  0
   30.6600   28.0500   36.8000 C   0  0  0  0  0  0  0  0  0  0  0  0
   31.5700   28.3600   35.7800 C   0  0  0  0  0  0  0  0  0  0  0  0
   31.3700   28.1000   34.4300 C   0  0  0  0  0  0  0  0  0  0  0  0
   30.1200   27.5900   34.0500 C   0  0  0  0  0  0  0  0  0  0  0  0
   29.1500   27.3400   35.0300 C   0  0  0  0  0  0  0  0  0  0  0  0
   27.8800   26.8900   34.6600 C   0  0  0  0  0  0  0  0  0  0  0  0
   27.4800   26.6100   33.3700 N   0  0  0  0  0  0  0  0  0  0  0  0
   31.0054   28.2812   38.2259 C   0  0  0  0  0  0  0  0  0  0  0  0
   30.8105   27.2704   39.1782 C   0  0  0  0  0  0  0  0  0  0  0  0
   31.1429   27.4689   40.5326 C   0  0  0  0  0  0  0  0  0  0  0  0
   30.8835   26.3346   41.4975 C   0  0  0  0  0  0  0  0  0  0  0  0
   32.0875   26.0234   42.2747 N   0  0  0  0  0  0  0  0  0  0  0  0
   32.8404   24.7898   42.0316 C   0  0  0  0  0  0  0  0  0  0  0  0
   32.5329   26.9445   43.2818 C   0  0  0  0  0  0  0  0  0  0  0  0
   33.5028   26.6503   44.0326 O   0  0  0  0  0  0  0  0  0  0  0  0
   31.8661   28.2755   43.4240 C   0  0  0  0  0  0  0  0  0  0  0  0
   32.0622   29.0557   42.2488 O   0  0  0  0  0  0  0  0  0  0  0  0
   31.6823   28.7259   40.9332 C   0  0  0  0  0  0  0  0  0  0  0  0
   31.8817   29.7197   39.9673 C   0  0  0  0  0  0  0  0  0  0  0  0
   31.5519   29.5039   38.6305 C   0  0  0  0  0  0  0  0  0  0  0  0
  1  2  1  0
  2  3  2  0
  2  4  1  0
  4  5  2  0
  5  6  1  0
  6  7  2  0
  7  8  1  0
  8  9  2  0
  9 10  1  0
 10 11  2  0
 11 12  1  0
 12 13  2  0
 13 14  1  0
  8 15  1  0
 15 16  2  0
 16 17  1  0
 17 18  1  0
 18 19  1  0
 19 20  1  0
 19 21  1  0
 21 22  2  0
 21 23  1  0
 23 24  1  0
 24 25  1  0
 25 26  1  0
 26 27  2  0
 13  4  1  0
 27 15  1  0
 12  7  1  0
 25 17  2  0
M  END
>  <AAScore>  (1) 
57.89572978730303

>  <RootName>  (1) 
./4ZLY/04_DeltaGEst/trajectory_01/rank_01/lead_0381

$$$$
