confid_15
     RDKit          3D

 26 29  0  0  0  0  0  0  0  0999 V2000
   24.2000   26.2400   35.6900 N   0  0  0  0  0  0  0  0  0  0  0  0
   24.8500   26.2800   34.4800 C   0  0  0  0  0  0  0  0  0  0  0  0
   24.3100   25.7400   33.5400 O   0  0  0  0  0  0  0  0  0  0  0  0
   26.1800   26.9700   34.4700 C   0  0  0  0  0  0  0  0  0  0  0  0
   26.6500   27.6000   35.5500 N   0  0  0  0  0  0  0  0  0  0  0  0
   27.7900   28.2700   35.6200 N   0  0  0  0  0  0  0  0  0  0  0  0
   28.5400   28.3000   34.5100 C   0  0  0  0  0  0  0  0  0  0  0  0
   29.7700   28.9400   34.5600 C   0  0  0  0  0  0  0  0  0  0  0  0
   30.7000   28.8900   33.5000 C   0  0  0  0  0  0  0  0  0  0  0  0
   30.3700   28.1400   32.3700 C   0  0  0  0  0  0  0  0  0  0  0  0
   29.1200   27.5200   32.2800 C   0  0  0  0  0  0  0  0  0  0  0  0
   28.2100   27.6100   33.3300 C   0  0  0  0  0  0  0  0  0  0  0  0
   26.9700   26.9700   33.3100 C   0  0  0  0  0  0  0  0  0  0  0  0
   26.5300   26.2400   32.2200 N   0  0  0  0  0  0  0  0  0  0  0  0
   22.7702   26.2407   35.8380 C   0  0  0  0  0  0  0  0  0  0  0  0
   22.2062   25.8352   36.9271 N   0  0  0  0  0  0  0  0  0  0  0  0
   20.8044   25.9737   36.7563 C   0  0  0  0  0  0  0  0  0  0  0  0
   20.5047   26.4993   35.5744 C   0  0  0  0  0  0  0  0  0  0  0  0
   19.1031   26.7979   35.0759 C   0  0  2  0  0  0  0  0  0  0  0  0
   19.1081   27.6537   33.7889 C   0  0  0  0  0  0  0  0  0  0  0  0
   19.5661   29.4250   34.0223 S   0  0  0  0  0  0  0  0  0  0  0  0
   21.1373   29.2553   34.9514 C   0  0  0  0  0  0  0  0  0  0  0  0
   21.9991   28.1497   34.4089 C   0  0  0  0  0  0  0  0  0  0  0  0
   22.8624   28.4200   33.5881 O   0  0  0  0  0  0  0  0  0  0  0  0
   21.7805   26.7063   34.8062 C   0  0  1  0  0  0  0  0  0  0  0  0
   18.2166   27.4346   36.1605 C   0  0  0  0  0  0  0  0  0  0  0  0
  1  2  1  0
  2  3  2  0
  2  4  1  0
  4  5  2  0
  5  6  1  0
  6  7  2  0
  7  8  1  0
  8  9  2  0
  9 10  1  0
 10 11  2  0
 11 12  1  0
 12 13  2  0
 13 14  1  0
  1 15  1  0
 15 16  2  0
 16 17  1  0
 17 18  2  0
 18 19  1  0
 19 20  1  0
 20 21  1  0
 21 22  1  0
 22 23  1  0
 23 24  2  0
 25 23  1  1
 19 26  1  1
 13  4  1  0
 25 15  1  0
 12  7  1  0
 25 18  1  0
M  END
>  <AAScore>  (1) 
139.40778020790734

>  <RootName>  (1) 
./4ZLY/04_DeltaGEst/trajectory_04/rank_00/lead_0422

$$$$
