confid_16
     RDKit          3D

 27 30  0  0  0  0  0  0  0  0999 V2000
   24.5700   26.8800   35.5900 N   0  0  0  0  0  0  0  0  0  0  0  0
   25.5000   26.4000   34.6900 C   0  0  0  0  0  0  0  0  0  0  0  0
   25.1700   25.5200   33.9100 O   0  0  0  0  0  0  0  0  0  0  0  0
   26.8400   27.0200   34.7400 C   0  0  0  0  0  0  0  0  0  0  0  0
   27.3800   27.2800   35.9400 N   0  0  0  0  0  0  0  0  0  0  0  0
   28.6200   27.7400   36.0300 N   0  0  0  0  0  0  0  0  0  0  0  0
   29.3800   28.0000   34.9600 C   0  0  0  0  0  0  0  0  0  0  0  0
   30.6700   28.5000   35.1300 C   0  0  0  0  0  0  0  0  0  0  0  0
   31.5400   28.6100   34.0300 C   0  0  0  0  0  0  0  0  0  0  0  0
   31.0900   28.2200   32.7700 C   0  0  0  0  0  0  0  0  0  0  0  0
   29.8000   27.7000   32.6000 C   0  0  0  0  0  0  0  0  0  0  0  0
   28.9600   27.5500   33.7100 C   0  0  0  0  0  0  0  0  0  0  0  0
   27.6600   27.0300   33.5900 C   0  0  0  0  0  0  0  0  0  0  0  0
   27.1600   26.7400   32.3400 N   0  0  0  0  0  0  0  0  0  0  0  0
   23.1477   26.7113   35.4603 C   0  0  0  0  0  0  0  0  0  0  0  0
   22.3812   26.6460   36.6134 N   0  0  0  0  0  0  0  0  0  0  0  0
   21.0148   26.5152   36.6124 C   0  0  0  0  0  0  0  0  0  0  0  0
   20.4152   26.4641   35.3760 C   0  0  0  0  0  0  0  0  0  0  0  0
   19.2569   26.3576   34.5446 C   0  0  1  0  0  0  0  0  0  0  0  0
   18.2914   27.5425   34.7138 C   0  0  0  0  0  0  0  0  0  0  0  0
   17.2174   27.4746   33.6989 N   0  0  0  0  0  0  0  0  0  0  0  0
   16.7047   28.8268   33.4134 C   0  0  0  0  0  0  0  0  0  0  0  0
   16.1174   26.5827   34.1340 C   0  0  0  0  0  0  0  0  0  0  0  0
   15.4659   25.9167   32.9258 C   0  0  0  0  0  0  0  0  0  0  0  0
   19.9866   26.4551   33.3665 O   0  0  0  0  0  0  0  0  0  0  0  0
   21.1523   26.5443   34.1966 C   0  0  0  0  0  0  0  0  0  0  0  0
   22.5250   26.6751   34.1759 C   0  0  0  0  0  0  0  0  0  0  0  0
  1  2  1  0
  2  3  2  0
  2  4  1  0
  4  5  2  0
  5  6  1  0
  6  7  2  0
  7  8  1  0
  8  9  2  0
  9 10  1  0
 10 11  2  0
 11 12  1  0
 12 13  2  0
 13 14  1  0
  1 15  1  0
 15 16  2  0
 16 17  1  0
 17 18  2  0
 18 19  1  0
 19 20  1  1
 20 21  1  0
 21 22  1  0
 21 23  1  0
 23 24  1  0
 19 25  1  0
 25 26  1  0
 26 27  2  0
 13  4  1  0
 27 15  1  0
 12  7  1  0
 26 18  1  0
M  END
>  <AAScore>  (1) 
3889.161038008804

>  <RootName>  (1) 
./4ZLY/04_DeltaGEst/trajectory_05/rank_00/lead_0296

$$$$
