confid_13
     RDKit          3D

 29 33  0  0  0  0  0  0  0  0999 V2000
   24.2000   26.2400   35.6900 N   0  0  0  0  0  0  0  0  0  0  0  0
   24.8500   26.2800   34.4800 C   0  0  0  0  0  0  0  0  0  0  0  0
   24.3100   25.7400   33.5400 O   0  0  0  0  0  0  0  0  0  0  0  0
   26.1800   26.9700   34.4700 C   0  0  0  0  0  0  0  0  0  0  0  0
   26.6500   27.6000   35.5500 N   0  0  0  0  0  0  0  0  0  0  0  0
   27.7900   28.2700   35.6200 N   0  0  0  0  0  0  0  0  0  0  0  0
   28.5400   28.3000   34.5100 C   0  0  0  0  0  0  0  0  0  0  0  0
   29.7700   28.9400   34.5600 C   0  0  0  0  0  0  0  0  0  0  0  0
   30.7000   28.8900   33.5000 C   0  0  0  0  0  0  0  0  0  0  0  0
   30.3700   28.1400   32.3700 C   0  0  0  0  0  0  0  0  0  0  0  0
   29.1200   27.5200   32.2800 C   0  0  0  0  0  0  0  0  0  0  0  0
   28.2100   27.6100   33.3300 C   0  0  0  0  0  0  0  0  0  0  0  0
   26.9700   26.9700   33.3100 C   0  0  0  0  0  0  0  0  0  0  0  0
   26.5300   26.2400   32.2200 N   0  0  0  0  0  0  0  0  0  0  0  0
   30.1326   29.6936   35.7290 N   0  0  0  0  0  0  0  0  0  0  0  0
   29.4622   30.9750   35.9954 C   0  0  0  0  0  0  0  0  0  0  0  0
   30.0884   31.6851   37.1976 C   0  0  0  0  0  0  0  0  0  0  0  0
   31.5537   31.6398   37.0855 N   0  0  0  0  0  0  0  0  0  0  0  0
   32.3555   32.8228   37.2588 C   0  0  0  0  0  0  0  0  0  0  0  0
   31.9784   34.0447   36.6770 C   0  0  0  0  0  0  0  0  0  0  0  0
   32.7840   35.1822   36.8370 C   0  0  0  0  0  0  0  0  0  0  0  0
   33.9782   35.0610   37.5761 C   0  0  0  0  0  0  0  0  0  0  0  0
   34.3305   33.8264   38.1235 C   0  0  0  0  0  0  0  0  0  0  0  0
   33.5243   32.7471   37.9522 N   0  0  0  0  0  0  0  0  0  0  0  0
   32.3203   36.4742   36.1848 C   0  0  0  0  0  0  0  0  0  0  0  0
   33.3980   37.3728   35.5939 C   0  0  0  0  0  0  0  0  0  0  0  0
   32.6804   37.7833   36.8744 C   0  0  0  0  0  0  0  0  0  0  0  0
   32.2254   30.3525   36.8451 C   0  0  0  0  0  0  0  0  0  0  0  0
   31.2168   29.2221   36.5996 C   0  0  0  0  0  0  0  0  0  0  0  0
  1  2  1  0
  2  3  2  0
  2  4  1  0
  4  5  2  0
  5  6  1  0
  6  7  2  0
  7  8  1  0
  8  9  2  0
  9 10  1  0
 10 11  2  0
 11 12  1  0
 12 13  2  0
 13 14  1  0
  8 15  1  0
 15 16  1  0
 16 17  1  0
 17 18  1  0
 18 19  1  0
 19 20  2  0
 20 21  1  0
 21 22  2  0
 22 23  1  0
 23 24  2  0
 21 25  1  0
 25 26  1  0
 26 27  1  0
 18 28  1  0
 28 29  1  0
 13  4  1  0
 29 15  1  0
 12  7  1  0
 24 19  1  0
 27 25  1  0
M  END
>  <AAScore>  (1) 
-8.33340788523988

>  <RootName>  (1) 
./4ZLY/04_DeltaGEst/trajectory_04/rank_01/lead_0208

$$$$
