confid_4
     RDKit          3D

 29 32  0  0  0  0  0  0  0  0999 V2000
   24.5500   26.3900   36.2500 N   0  0  0  0  0  0  0  0  0  0  0  0
   25.6000   26.1300   35.4000 C   0  0  0  0  0  0  0  0  0  0  0  0
   25.4300   25.4300   34.4200 O   0  0  0  0  0  0  0  0  0  0  0  0
   26.9800   26.6300   35.7100 C   0  0  0  0  0  0  0  0  0  0  0  0
   27.3200   26.8200   36.9800 N   0  0  0  0  0  0  0  0  0  0  0  0
   28.4700   27.4000   37.3100 N   0  0  0  0  0  0  0  0  0  0  0  0
   29.4000   27.6300   36.3700 C   0  0  0  0  0  0  0  0  0  0  0  0
   30.6600   28.0500   36.8000 C   0  0  0  0  0  0  0  0  0  0  0  0
   31.5700   28.3600   35.7800 C   0  0  0  0  0  0  0  0  0  0  0  0
   31.3700   28.1000   34.4300 C   0  0  0  0  0  0  0  0  0  0  0  0
   30.1200   27.5900   34.0500 C   0  0  0  0  0  0  0  0  0  0  0  0
   29.1500   27.3400   35.0300 C   0  0  0  0  0  0  0  0  0  0  0  0
   27.8800   26.8900   34.6600 C   0  0  0  0  0  0  0  0  0  0  0  0
   27.4800   26.6100   33.3700 N   0  0  0  0  0  0  0  0  0  0  0  0
   23.2428   25.7277   36.1323 C   0  0  2  0  0  0  0  0  0  0  0  0
   22.1588   26.4841   36.9192 C   0  0  0  0  0  0  0  0  0  0  0  0
   22.4087   26.4766   38.4407 C   0  0  0  0  0  0  0  0  0  0  0  0
   23.0220   25.2276   38.9268 N   0  0  0  0  0  0  0  0  0  0  0  0
   23.5121   25.2150   40.2819 C   0  0  0  0  0  0  0  0  0  0  0  0
   22.8495   25.7827   41.1916 O   0  0  0  0  0  0  0  0  0  0  0  0
   24.8216   24.5761   40.6329 C   0  0  0  0  0  0  0  0  0  0  0  0
   23.2176   24.0995   38.0423 C   0  0  0  0  0  0  0  0  0  0  0  0
   23.2450   22.7812   38.5320 C   0  0  0  0  0  0  0  0  0  0  0  0
   23.4323   21.7057   37.6601 C   0  0  0  0  0  0  0  0  0  0  0  0
   23.5758   21.9308   36.2871 C   0  0  0  0  0  0  0  0  0  0  0  0
   23.7679   20.8214   35.3905 C   0  0  0  0  0  0  0  0  0  0  0  0
   23.9223   19.9297   34.6695 N   0  0  0  0  0  0  0  0  0  0  0  0
   23.5170   23.2355   35.7853 C   0  0  0  0  0  0  0  0  0  0  0  0
   23.3264   24.3194   36.6572 C   0  0  0  0  0  0  0  0  0  0  0  0
  1  2  1  0
  2  3  2  0
  2  4  1  0
  4  5  2  0
  5  6  1  0
  6  7  2  0
  7  8  1  0
  8  9  2  0
  9 10  1  0
 10 11  2  0
 11 12  1  0
 12 13  2  0
 13 14  1  0
 15  1  1  1
 15 16  1  0
 16 17  1  0
 17 18  1  0
 18 19  1  0
 19 20  2  0
 19 21  1  0
 18 22  1  0
 22 23  2  0
 23 24  1  0
 24 25  2  0
 25 26  1  0
 26 27  3  0
 25 28  1  0
 28 29  2  0
 13  4  1  0
 29 15  1  0
 12  7  1  0
 29 22  1  0
M  END
>  <AAScore>  (1) 
975.0723544872088

>  <RootName>  (1) 
./4ZLY/04_DeltaGEst/trajectory_01/rank_00/lead_0007

$$$$
