confid_10
     RDKit          3D

 28 31  0  0  0  0  0  0  0  0999 V2000
   24.6900   26.1200   35.5300 N   0  0  0  0  0  0  0  0  0  0  0  0
   25.6600   25.6700   34.6600 C   0  0  0  0  0  0  0  0  0  0  0  0
   25.2400   25.0100   33.7200 O   0  0  0  0  0  0  0  0  0  0  0  0
   27.0300   26.2200   34.8800 C   0  0  0  0  0  0  0  0  0  0  0  0
   27.3500   26.7300   36.0700 N   0  0  0  0  0  0  0  0  0  0  0  0
   28.5700   27.1800   36.3300 N   0  0  0  0  0  0  0  0  0  0  0  0
   29.5300   27.1100   35.3900 C   0  0  0  0  0  0  0  0  0  0  0  0
   30.8300   27.5700   35.6500 C   0  0  0  0  0  0  0  0  0  0  0  0
   31.8500   27.5400   34.6900 C   0  0  0  0  0  0  0  0  0  0  0  0
   31.5100   27.1200   33.4000 C   0  0  0  0  0  0  0  0  0  0  0  0
   30.2200   26.6300   33.1100 C   0  0  0  0  0  0  0  0  0  0  0  0
   29.2400   26.6600   34.1000 C   0  0  0  0  0  0  0  0  0  0  0  0
   27.9300   26.2600   33.8100 C   0  0  0  0  0  0  0  0  0  0  0  0
   27.5200   25.7100   32.6100 N   0  0  0  0  0  0  0  0  0  0  0  0
   23.5274   25.3531   35.9074 C   0  0  0  0  0  0  0  0  0  0  0  0
   23.3799   24.0740   35.4657 N   0  0  0  0  0  0  0  0  0  0  0  0
   22.3096   23.3097   35.7954 C   0  0  0  0  0  0  0  0  0  0  0  0
   21.2934   23.8298   36.6047 C   0  0  0  0  0  0  0  0  0  0  0  0
   20.1233   22.9602   37.0120 C   0  0  0  0  0  0  0  0  0  0  0  0
   20.1939   22.5174   38.4268 N   0  0  0  0  0  0  0  0  0  0  0  0
   20.7108   23.5333   39.3770 C   0  0  0  0  0  0  0  0  0  0  0  0
   20.0065   24.9009   39.2567 C   0  0  0  0  0  0  0  0  0  0  0  0
   20.3127   25.7202   37.9745 C   0  0  0  0  0  0  0  0  0  0  0  0
   21.4139   25.1446   37.1004 C   0  0  0  0  0  0  0  0  0  0  0  0
   22.5528   25.9052   36.7619 C   0  0  0  0  0  0  0  0  0  0  0  0
   22.7190   27.1956   37.2689 O   0  0  0  0  0  0  0  0  0  0  0  0
   23.3748   27.4180   38.5116 C   0  0  0  0  0  0  0  0  0  0  0  0
   20.9835   21.2805   38.5451 C   0  0  0  0  0  0  0  0  0  0  0  0
  1  2  1  0
  2  3  2  0
  2  4  1  0
  4  5  2  0
  5  6  1  0
  6  7  2  0
  7  8  1  0
  8  9  2  0
  9 10  1  0
 10 11  2  0
 11 12  1  0
 12 13  2  0
 13 14  1  0
  1 15  1  0
 15 16  2  0
 16 17  1  0
 17 18  2  0
 18 19  1  0
 19 20  1  0
 20 21  1  0
 21 22  1  0
 22 23  1  0
 23 24  1  0
 24 25  2  0
 25 26  1  0
 26 27  1  0
 20 28  1  0
 13  4  1  0
 25 15  1  0
 12  7  1  0
 24 18  1  0
M  END
>  <AAScore>  (1) 
5472.683613318989

>  <RootName>  (1) 
./4ZLY/04_DeltaGEst/trajectory_02/rank_00/lead_0059

$$$$
