confid_11
     RDKit          3D

 32 36  0  0  0  0  0  0  0  0999 V2000
   24.6900   26.1200   35.5300 N   0  0  0  0  0  0  0  0  0  0  0  0
   25.6600   25.6700   34.6600 C   0  0  0  0  0  0  0  0  0  0  0  0
   25.2400   25.0100   33.7200 O   0  0  0  0  0  0  0  0  0  0  0  0
   27.0300   26.2200   34.8800 C   0  0  0  0  0  0  0  0  0  0  0  0
   27.3500   26.7300   36.0700 N   0  0  0  0  0  0  0  0  0  0  0  0
   28.5700   27.1800   36.3300 N   0  0  0  0  0  0  0  0  0  0  0  0
   29.5300   27.1100   35.3900 C   0  0  0  0  0  0  0  0  0  0  0  0
   30.8300   27.5700   35.6500 C   0  0  0  0  0  0  0  0  0  0  0  0
   31.8500   27.5400   34.6900 C   0  0  0  0  0  0  0  0  0  0  0  0
   31.5100   27.1200   33.4000 C   0  0  0  0  0  0  0  0  0  0  0  0
   30.2200   26.6300   33.1100 C   0  0  0  0  0  0  0  0  0  0  0  0
   29.2400   26.6600   34.1000 C   0  0  0  0  0  0  0  0  0  0  0  0
   27.9300   26.2600   33.8100 C   0  0  0  0  0  0  0  0  0  0  0  0
   27.5200   25.7100   32.6100 N   0  0  0  0  0  0  0  0  0  0  0  0
   31.1525   28.0631   36.9612 N   0  0  0  0  0  0  0  0  0  0  0  0
   31.9258   27.2259   37.8783 C   0  0  0  0  0  0  0  0  0  0  0  0
   31.0029   26.4228   38.7986 C   0  0  0  0  0  0  0  0  0  0  0  0
   29.9361   27.1579   39.6085 C   0  0  0  0  0  0  0  0  0  0  0  0
   29.0892   26.3229   40.3636 C   0  0  0  0  0  0  0  0  0  0  0  0
   28.0537   26.8442   41.1487 C   0  0  0  0  0  0  0  0  0  0  0  0
   27.1653   25.9318   41.9555 C   0  0  0  0  0  0  0  0  0  0  0  0
   27.3597   26.1652   43.4040 N   0  0  0  0  0  0  0  0  0  0  0  0
   26.3129   25.4974   44.1896 C   0  0  0  0  0  0  0  0  0  0  0  0
   26.8130   24.1061   44.5455 C   0  0  0  0  0  0  0  0  0  0  0  0
   28.3205   24.1693   44.3889 C   0  0  0  0  0  0  0  0  0  0  0  0
   28.6195   25.5740   43.8821 C   0  0  0  0  0  0  0  0  0  0  0  0
   27.8546   28.2248   41.1900 C   0  0  0  0  0  0  0  0  0  0  0  0
   28.6771   29.0759   40.4570 C   0  0  0  0  0  0  0  0  0  0  0  0
   29.7208   28.5719   39.6573 C   0  0  0  0  0  0  0  0  0  0  0  0
   30.5640   29.5784   38.9101 C   0  0  0  0  0  0  0  0  0  0  0  0
   30.5617   29.2771   37.4448 C   0  0  0  0  0  0  0  0  0  0  0  0
   30.0078   30.0784   36.6433 O   0  0  0  0  0  0  0  0  0  0  0  0
  1  2  1  0
  2  3  2  0
  2  4  1  0
  4  5  2  0
  5  6  1  0
  6  7  2  0
  7  8  1  0
  8  9  2  0
  9 10  1  0
 10 11  2  0
 11 12  1  0
 12 13  2  0
 13 14  1  0
  8 15  1  0
 15 16  1  0
 16 17  1  0
 17 18  1  0
 18 19  2  0
 19 20  1  0
 20 21  1  0
 21 22  1  0
 22 23  1  0
 23 24  1  0
 24 25  1  0
 25 26  1  0
 20 27  2  0
 27 28  1  0
 28 29  2  0
 29 30  1  0
 30 31  1  0
 31 32  2  0
 13  4  1  0
 31 15  1  0
 12  7  1  0
 29 18  1  0
 26 22  1  0
M  END
>  <AAScore>  (1) 
24.14585732556034

>  <RootName>  (1) 
./4ZLY/04_DeltaGEst/trajectory_02/rank_01/lead_0247

$$$$
