confid_11
     RDKit          3D

 29 32  0  0  0  0  0  0  0  0999 V2000
   24.2000   26.2400   35.6900 N   0  0  0  0  0  0  0  0  0  0  0  0
   24.8500   26.2800   34.4800 C   0  0  0  0  0  0  0  0  0  0  0  0
   24.3100   25.7400   33.5400 O   0  0  0  0  0  0  0  0  0  0  0  0
   26.1800   26.9700   34.4700 C   0  0  0  0  0  0  0  0  0  0  0  0
   26.6500   27.6000   35.5500 N   0  0  0  0  0  0  0  0  0  0  0  0
   27.7900   28.2700   35.6200 N   0  0  0  0  0  0  0  0  0  0  0  0
   28.5400   28.3000   34.5100 C   0  0  0  0  0  0  0  0  0  0  0  0
   29.7700   28.9400   34.5600 C   0  0  0  0  0  0  0  0  0  0  0  0
   30.7000   28.8900   33.5000 C   0  0  0  0  0  0  0  0  0  0  0  0
   30.3700   28.1400   32.3700 C   0  0  0  0  0  0  0  0  0  0  0  0
   29.1200   27.5200   32.2800 C   0  0  0  0  0  0  0  0  0  0  0  0
   28.2100   27.6100   33.3300 C   0  0  0  0  0  0  0  0  0  0  0  0
   26.9700   26.9700   33.3100 C   0  0  0  0  0  0  0  0  0  0  0  0
   26.5300   26.2400   32.2200 N   0  0  0  0  0  0  0  0  0  0  0  0
   30.1384   29.6747   35.7375 N   0  0  0  0  0  0  0  0  0  0  0  0
   29.5473   30.9935   35.9837 C   0  0  0  0  0  0  0  0  0  0  0  0
   29.8366   31.4636   37.4175 C   0  0  0  0  0  0  0  0  0  0  0  0
   31.2724   31.3701   37.7783 N   0  0  0  0  0  0  0  0  0  0  0  0
   31.9844   32.6656   37.8268 C   0  0  0  0  0  0  0  0  0  0  0  0
   31.9565   33.4421   36.4946 C   0  0  0  0  0  0  0  0  0  0  0  0
   32.8256   34.6677   36.5858 C   0  0  0  0  0  0  0  0  0  0  0  0
   34.1841   34.6008   36.2335 C   0  0  0  0  0  0  0  0  0  0  0  0
   34.9985   35.7315   36.3502 C   0  0  0  0  0  0  0  0  0  0  0  0
   34.4659   36.9325   36.8279 C   0  0  0  0  0  0  0  0  0  0  0  0
   35.2573   38.0276   36.9410 F   0  0  0  0  0  0  0  0  0  0  0  0
   33.1184   37.0029   37.1937 C   0  0  0  0  0  0  0  0  0  0  0  0
   32.3008   35.8743   37.0785 C   0  0  0  0  0  0  0  0  0  0  0  0
   32.0517   30.2940   37.1210 C   0  0  0  0  0  0  0  0  0  0  0  0
   31.1608   29.1465   36.6426 C   0  0  0  0  0  0  0  0  0  0  0  0
  1  2  1  0
  2  3  2  0
  2  4  1  0
  4  5  2  0
  5  6  1  0
  6  7  2  0
  7  8  1  0
  8  9  2  0
  9 10  1  0
 10 11  2  0
 11 12  1  0
 12 13  2  0
 13 14  1  0
  8 15  1  0
 15 16  1  0
 16 17  1  0
 17 18  1  0
 18 19  1  0
 19 20  1  0
 20 21  1  0
 21 22  2  0
 22 23  1  0
 23 24  2  0
 24 25  1  0
 24 26  1  0
 26 27  2  0
 18 28  1  0
 28 29  1  0
 13  4  1  0
 29 15  1  0
 12  7  1  0
 27 21  1  0
M  END
>  <AAScore>  (1) 
-8.200776990988325

>  <RootName>  (1) 
./4ZLY/04_DeltaGEst/trajectory_04/rank_01/lead_0216

$$$$
