confid_8
     RDKit          3D

 27 29  0  0  0  0  0  0  0  0999 V2000
   24.4800   26.1000   36.1300 N   0  0  0  0  0  0  0  0  0  0  0  0
   25.2500   26.2500   34.9900 C   0  0  0  0  0  0  0  0  0  0  0  0
   24.7400   25.7600   33.9900 O   0  0  0  0  0  0  0  0  0  0  0  0
   26.5900   26.8900   34.9600 C   0  0  0  0  0  0  0  0  0  0  0  0
   27.0600   27.2400   36.1600 N   0  0  0  0  0  0  0  0  0  0  0  0
   28.3000   27.7100   36.2400 N   0  0  0  0  0  0  0  0  0  0  0  0
   29.0500   27.9600   35.1500 C   0  0  0  0  0  0  0  0  0  0  0  0
   30.3400   28.4900   35.2600 C   0  0  0  0  0  0  0  0  0  0  0  0
   31.1100   28.8200   34.1400 C   0  0  0  0  0  0  0  0  0  0  0  0
   30.5200   28.6700   32.8800 C   0  0  0  0  0  0  0  0  0  0  0  0
   29.2900   28.0200   32.7700 C   0  0  0  0  0  0  0  0  0  0  0  0
   28.5200   27.7100   33.8900 C   0  0  0  0  0  0  0  0  0  0  0  0
   27.2700   27.0800   33.7600 C   0  0  0  0  0  0  0  0  0  0  0  0
   26.7500   26.8800   32.4900 N   0  0  0  0  0  0  0  0  0  0  0  0
   23.0402   26.0237   36.1287 C   0  0  0  0  0  0  0  0  0  0  0  0
   22.2711   26.7632   35.2131 C   0  0  0  0  0  0  0  0  0  0  0  0
   20.8696   26.6521   35.2280 C   0  0  0  0  0  0  0  0  0  0  0  0
   20.0485   27.3818   34.2955 N   0  0  0  0  0  0  0  0  0  0  0  0
   20.3489   28.7793   33.9627 C   0  0  0  0  0  0  0  0  0  0  0  0
   18.8655   26.7527   33.7676 C   0  0  0  0  0  0  0  0  0  0  0  0
   18.9454   25.5797   33.3068 O   0  0  0  0  0  0  0  0  0  0  0  0
   17.5968   27.4359   33.7578 N   0  0  0  0  0  0  0  0  0  0  0  0
   17.2777   28.4570   34.7595 C   0  0  0  0  0  0  0  0  0  0  0  0
   16.6202   27.1182   32.7146 C   0  0  0  0  0  0  0  0  0  0  0  0
   20.2774   25.8282   36.1380 N   0  0  0  0  0  0  0  0  0  0  0  0
   20.9966   25.1243   37.0514 C   0  0  0  0  0  0  0  0  0  0  0  0
   22.3895   25.2186   37.0705 C   0  0  0  0  0  0  0  0  0  0  0  0
  1  2  1  0
  2  3  2  0
  2  4  1  0
  4  5  2  0
  5  6  1  0
  6  7  2  0
  7  8  1  0
  8  9  2  0
  9 10  1  0
 10 11  2  0
 11 12  1  0
 12 13  2  0
 13 14  1  0
  1 15  1  0
 15 16  2  0
 16 17  1  0
 17 18  1  0
 18 19  1  0
 18 20  1  0
 20 21  2  0
 20 22  1  0
 22 23  1  0
 22 24  1  0
 17 25  2  0
 25 26  1  0
 26 27  2  0
 13  4  1  0
 27 15  1  0
 12  7  1  0
M  END
>  <AAScore>  (1) 
389.1080804894038

>  <RootName>  (1) 
./4ZLY/04_DeltaGEst/trajectory_00/rank_00/lead_0050

$$$$
