confid_3
     RDKit          3D

 27 30  0  0  0  0  0  0  0  0999 V2000
   24.4800   26.1000   36.1300 N   0  0  0  0  0  0  0  0  0  0  0  0
   25.2500   26.2500   34.9900 C   0  0  0  0  0  0  0  0  0  0  0  0
   24.7400   25.7600   33.9900 O   0  0  0  0  0  0  0  0  0  0  0  0
   26.5900   26.8900   34.9600 C   0  0  0  0  0  0  0  0  0  0  0  0
   27.0600   27.2400   36.1600 N   0  0  0  0  0  0  0  0  0  0  0  0
   28.3000   27.7100   36.2400 N   0  0  0  0  0  0  0  0  0  0  0  0
   29.0500   27.9600   35.1500 C   0  0  0  0  0  0  0  0  0  0  0  0
   30.3400   28.4900   35.2600 C   0  0  0  0  0  0  0  0  0  0  0  0
   31.1100   28.8200   34.1400 C   0  0  0  0  0  0  0  0  0  0  0  0
   30.5200   28.6700   32.8800 C   0  0  0  0  0  0  0  0  0  0  0  0
   29.2900   28.0200   32.7700 C   0  0  0  0  0  0  0  0  0  0  0  0
   28.5200   27.7100   33.8900 C   0  0  0  0  0  0  0  0  0  0  0  0
   27.2700   27.0800   33.7600 C   0  0  0  0  0  0  0  0  0  0  0  0
   26.7500   26.8800   32.4900 N   0  0  0  0  0  0  0  0  0  0  0  0
   23.4600   25.1043   36.3305 C   0  0  0  0  0  0  0  0  0  0  0  0
   23.3217   24.0569   35.4733 N   0  0  0  0  0  0  0  0  0  0  0  0
   22.3768   23.1036   35.6726 C   0  0  0  0  0  0  0  0  0  0  0  0
   21.5142   23.1873   36.7723 C   0  0  0  0  0  0  0  0  0  0  0  0
   20.4105   22.1701   36.9805 C   0  0  1  0  0  0  0  0  0  0  0  0
   20.0399   22.1199   38.4732 C   0  0  0  0  0  0  0  0  0  0  0  0
   19.7140   23.4801   38.9429 N   0  0  0  0  0  0  0  0  0  0  0  0
   19.1147   23.4264   40.2847 C   0  0  0  0  0  0  0  0  0  0  0  0
   20.9255   24.3259   38.9636 C   0  0  0  0  0  0  0  0  0  0  0  0
   21.6870   24.2623   37.6638 C   0  0  0  0  0  0  0  0  0  0  0  0
   22.6597   25.1817   37.4263 N   0  0  0  0  0  0  0  0  0  0  0  0
   19.1576   22.5121   36.1364 C   0  0  0  0  0  0  0  0  0  0  0  0
   19.3730   22.3338   34.6336 C   0  0  0  0  0  0  0  0  0  0  0  0
  1  2  1  0
  2  3  2  0
  2  4  1  0
  4  5  2  0
  5  6  1  0
  6  7  2  0
  7  8  1  0
  8  9  2  0
  9 10  1  0
 10 11  2  0
 11 12  1  0
 12 13  2  0
 13 14  1  0
  1 15  1  0
 15 16  2  0
 16 17  1  0
 17 18  2  0
 18 19  1  0
 19 20  1  0
 20 21  1  0
 21 22  1  0
 21 23  1  0
 23 24  1  0
 24 25  2  0
 19 26  1  6
 26 27  1  0
 13  4  1  0
 25 15  1  0
 12  7  1  0
 24 18  1  0
M  END
>  <AAScore>  (1) 
479.3876543505369

>  <RootName>  (1) 
./4ZLY/04_DeltaGEst/trajectory_00/rank_01/lead_0420

$$$$
