confid_0
     RDKit          3D

 27 30  0  0  0  0  0  0  0  0999 V2000
   25.3300   26.2600   34.7600 N   0  0  0  0  0  0  0  0  0  0  0  0
   26.1200   25.9200   33.6900 C   0  0  0  0  0  0  0  0  0  0  0  0
   25.6300   25.1100   32.9400 O   0  0  0  0  0  0  0  0  0  0  0  0
   27.5200   26.3800   33.4600 C   0  0  0  0  0  0  0  0  0  0  0  0
   28.1600   26.6300   34.6100 N   0  0  0  0  0  0  0  0  0  0  0  0
   29.4800   26.8500   34.5700 N   0  0  0  0  0  0  0  0  0  0  0  0
   30.1900   26.7800   33.4400 C   0  0  0  0  0  0  0  0  0  0  0  0
   31.5600   27.0500   33.5000 C   0  0  0  0  0  0  0  0  0  0  0  0
   32.2700   27.2400   32.3100 C   0  0  0  0  0  0  0  0  0  0  0  0
   31.6100   27.2500   31.0800 C   0  0  0  0  0  0  0  0  0  0  0  0
   30.2700   26.8700   31.0600 C   0  0  0  0  0  0  0  0  0  0  0  0
   29.5100   26.6900   32.2300 C   0  0  0  0  0  0  0  0  0  0  0  0
   28.1400   26.4100   32.2000 C   0  0  0  0  0  0  0  0  0  0  0  0
   27.4300   26.1300   31.0500 N   0  0  0  0  0  0  0  0  0  0  0  0
   24.1931   25.4997   35.2223 C   0  0  0  0  0  0  0  0  0  0  0  0
   24.1587   24.1576   35.0061 N   0  0  0  0  0  0  0  0  0  0  0  0
   23.1562   23.3610   35.4576 C   0  0  0  0  0  0  0  0  0  0  0  0
   23.1781   21.9856   35.1990 O   0  0  0  0  0  0  0  0  0  0  0  0
   24.2179   21.3573   34.4587 C   0  0  0  0  0  0  0  0  0  0  0  0
   22.1050   23.9191   36.1957 C   0  0  0  0  0  0  0  0  0  0  0  0
   21.0196   23.0340   36.7708 C   0  0  0  0  0  0  0  0  0  0  0  0
   19.8580   23.7659   37.1143 O   0  0  0  0  0  0  0  0  0  0  0  0
   20.1941   24.7913   38.0251 C   0  0  0  0  0  0  0  0  0  0  0  0
   20.9942   25.8840   37.3119 C   0  0  0  0  0  0  0  0  0  0  0  0
   22.1180   25.2989   36.4834 C   0  0  0  0  0  0  0  0  0  0  0  0
   23.1454   26.1163   35.9467 C   0  0  0  0  0  0  0  0  0  0  0  0
   23.1511   27.6128   36.1656 C   0  0  0  0  0  0  0  0  0  0  0  0
  1  2  1  0
  2  3  2  0
  2  4  1  0
  4  5  2  0
  5  6  1  0
  6  7  2  0
  7  8  1  0
  8  9  2  0
  9 10  1  0
 10 11  2  0
 11 12  1  0
 12 13  2  0
 13 14  1  0
  1 15  1  0
 15 16  2  0
 16 17  1  0
 17 18  1  0
 18 19  1  0
 17 20  2  0
 20 21  1  0
 21 22  1  0
 22 23  1  0
 23 24  1  0
 24 25  1  0
 25 26  2  0
 26 27  1  0
 13  4  1  0
 26 15  1  0
 12  7  1  0
 25 20  1  0
M  END
>  <AAScore>  (1) 
3807.431519556859

>  <RootName>  (1) 
./4ZLY/04_DeltaGEst/trajectory_03/rank_00/lead_0352

$$$$
