confid_1
     RDKit          3D

 29 32  0  0  0  0  0  0  0  0999 V2000
   24.5500   26.3900   36.2500 N   0  0  0  0  0  0  0  0  0  0  0  0
   25.6000   26.1300   35.4000 C   0  0  0  0  0  0  0  0  0  0  0  0
   25.4300   25.4300   34.4200 O   0  0  0  0  0  0  0  0  0  0  0  0
   26.9800   26.6300   35.7100 C   0  0  0  0  0  0  0  0  0  0  0  0
   27.3200   26.8200   36.9800 N   0  0  0  0  0  0  0  0  0  0  0  0
   28.4700   27.4000   37.3100 N   0  0  0  0  0  0  0  0  0  0  0  0
   29.4000   27.6300   36.3700 C   0  0  0  0  0  0  0  0  0  0  0  0
   30.6600   28.0500   36.8000 C   0  0  0  0  0  0  0  0  0  0  0  0
   31.5700   28.3600   35.7800 C   0  0  0  0  0  0  0  0  0  0  0  0
   31.3700   28.1000   34.4300 C   0  0  0  0  0  0  0  0  0  0  0  0
   30.1200   27.5900   34.0500 C   0  0  0  0  0  0  0  0  0  0  0  0
   29.1500   27.3400   35.0300 C   0  0  0  0  0  0  0  0  0  0  0  0
   27.8800   26.8900   34.6600 C   0  0  0  0  0  0  0  0  0  0  0  0
   27.4800   26.6100   33.3700 N   0  0  0  0  0  0  0  0  0  0  0  0
   23.2473   25.7150   36.1435 C   0  0  0  0  0  0  0  0  0  0  0  0
   23.3297   24.3179   36.7851 C   0  0  0  0  0  0  0  0  0  0  0  0
   23.6572   24.4283   38.2836 C   0  0  0  0  0  0  0  0  0  0  0  0
   22.9519   25.5578   38.9106 N   0  0  0  0  0  0  0  0  0  0  0  0
   23.3674   25.9987   40.2204 C   0  0  0  0  0  0  0  0  0  0  0  0
   24.0166   25.2082   40.9598 O   0  0  0  0  0  0  0  0  0  0  0  0
   23.0216   27.3804   40.7259 C   0  0  0  0  0  0  0  0  0  0  0  0
   23.9622   27.8845   41.8278 C   0  0  0  0  0  0  0  0  0  0  0  0
   23.7983   27.1117   43.0518 N   0  0  0  0  0  0  0  0  0  0  0  0
   24.7146   26.4223   43.9843 C   0  0  0  0  0  0  0  0  0  0  0  0
   25.9573   26.2320   44.0343 O   0  0  0  0  0  0  0  0  0  0  0  0
   23.5496   26.0549   44.8438 C   0  0  0  0  0  0  0  0  0  0  0  0
   22.6981   26.7551   43.9233 C   0  0  0  0  0  0  0  0  0  0  0  0
   21.7783   26.1265   38.2304 C   0  0  0  0  0  0  0  0  0  0  0  0
   22.1341   26.5719   36.8011 C   0  0  0  0  0  0  0  0  0  0  0  0
  1  2  1  0
  2  3  2  0
  2  4  1  0
  4  5  2  0
  5  6  1  0
  6  7  2  0
  7  8  1  0
  8  9  2  0
  9 10  1  0
 10 11  2  0
 11 12  1  0
 12 13  2  0
 13 14  1  0
  1 15  1  0
 15 16  1  0
 16 17  1  0
 17 18  1  0
 18 19  1  0
 19 20  2  0
 19 21  1  0
 21 22  1  0
 22 23  1  0
 23 24  1  0
 24 25  2  0
 24 26  1  0
 26 27  1  0
 18 28  1  0
 28 29  1  0
 13  4  1  0
 29 15  1  0
 12  7  1  0
 27 23  1  0
M  END
>  <AAScore>  (1) 
74.07565756778048

>  <RootName>  (1) 
./4ZLY/04_DeltaGEst/trajectory_01/rank_00/lead_0498

$$$$
