confid_9
     RDKit          3D

 29 32  0  0  0  0  0  0  0  0999 V2000
   24.2000   26.2400   35.6900 N   0  0  0  0  0  0  0  0  0  0  0  0
   24.8500   26.2800   34.4800 C   0  0  0  0  0  0  0  0  0  0  0  0
   24.3100   25.7400   33.5400 O   0  0  0  0  0  0  0  0  0  0  0  0
   26.1800   26.9700   34.4700 C   0  0  0  0  0  0  0  0  0  0  0  0
   26.6500   27.6000   35.5500 N   0  0  0  0  0  0  0  0  0  0  0  0
   27.7900   28.2700   35.6200 N   0  0  0  0  0  0  0  0  0  0  0  0
   28.5400   28.3000   34.5100 C   0  0  0  0  0  0  0  0  0  0  0  0
   29.7700   28.9400   34.5600 C   0  0  0  0  0  0  0  0  0  0  0  0
   30.7000   28.8900   33.5000 C   0  0  0  0  0  0  0  0  0  0  0  0
   30.3700   28.1400   32.3700 C   0  0  0  0  0  0  0  0  0  0  0  0
   29.1200   27.5200   32.2800 C   0  0  0  0  0  0  0  0  0  0  0  0
   28.2100   27.6100   33.3300 C   0  0  0  0  0  0  0  0  0  0  0  0
   26.9700   26.9700   33.3100 C   0  0  0  0  0  0  0  0  0  0  0  0
   26.5300   26.2400   32.2200 N   0  0  0  0  0  0  0  0  0  0  0  0
   23.6183   25.0460   36.2307 C   0  0  0  0  0  0  0  0  0  0  0  0
   22.5823   25.0958   37.0042 N   0  0  0  0  0  0  0  0  0  0  0  0
   22.3645   23.7849   37.5038 C   0  0  0  0  0  0  0  0  0  0  0  0
   23.2955   22.9513   37.0710 C   0  0  0  0  0  0  0  0  0  0  0  0
   23.2521   21.4598   37.1931 C   0  0  0  0  0  0  0  0  0  0  0  0
   24.0486   20.7989   36.0962 C   0  0  0  0  0  0  0  0  0  0  0  0
   24.1479   19.5420   36.1039 O   0  0  0  0  0  0  0  0  0  0  0  0
   24.6960   21.5725   35.0562 N   0  0  0  0  0  0  0  0  0  0  0  0
   25.5927   20.9214   34.0920 C   0  0  0  0  0  0  0  0  0  0  0  0
   24.8185   20.5350   32.8265 C   0  0  0  0  0  0  0  0  0  0  0  0
   25.6596   19.7247   31.9185 N   0  0  0  0  0  0  0  0  0  0  0  0
   26.5567   20.5816   31.1220 C   0  0  0  0  0  0  0  0  0  0  0  0
   24.8077   18.9373   31.0118 C   0  0  0  0  0  0  0  0  0  0  0  0
   24.3561   22.9922   34.8687 C   0  0  0  0  0  0  0  0  0  0  0  0
   24.2721   23.6886   36.2262 C   0  0  1  0  0  0  0  0  0  0  0  0
  1  2  1  0
  2  3  2  0
  2  4  1  0
  4  5  2  0
  5  6  1  0
  6  7  2  0
  7  8  1  0
  8  9  2  0
  9 10  1  0
 10 11  2  0
 11 12  1  0
 12 13  2  0
 13 14  1  0
  1 15  1  0
 15 16  2  0
 16 17  1  0
 17 18  2  0
 18 19  1  0
 19 20  1  0
 20 21  2  0
 20 22  1  0
 22 23  1  0
 23 24  1  0
 24 25  1  0
 25 26  1  0
 25 27  1  0
 22 28  1  0
 29 28  1  6
 13  4  1  0
 29 15  1  0
 12  7  1  0
 29 18  1  0
M  END
>  <AAScore>  (1) 
3583.4118690653945

>  <RootName>  (1) 
./4ZLY/04_DeltaGEst/trajectory_04/rank_00/lead_0048

$$$$
