confid_11
     RDKit          3D

 30 34  0  0  0  0  0  0  0  0999 V2000
   24.5700   26.8800   35.5900 N   0  0  0  0  0  0  0  0  0  0  0  0
   25.5000   26.4000   34.6900 C   0  0  0  0  0  0  0  0  0  0  0  0
   25.1700   25.5200   33.9100 O   0  0  0  0  0  0  0  0  0  0  0  0
   26.8400   27.0200   34.7400 C   0  0  0  0  0  0  0  0  0  0  0  0
   27.3800   27.2800   35.9400 N   0  0  0  0  0  0  0  0  0  0  0  0
   28.6200   27.7400   36.0300 N   0  0  0  0  0  0  0  0  0  0  0  0
   29.3800   28.0000   34.9600 C   0  0  0  0  0  0  0  0  0  0  0  0
   30.6700   28.5000   35.1300 C   0  0  0  0  0  0  0  0  0  0  0  0
   31.5400   28.6100   34.0300 C   0  0  0  0  0  0  0  0  0  0  0  0
   31.0900   28.2200   32.7700 C   0  0  0  0  0  0  0  0  0  0  0  0
   29.8000   27.7000   32.6000 C   0  0  0  0  0  0  0  0  0  0  0  0
   28.9600   27.5500   33.7100 C   0  0  0  0  0  0  0  0  0  0  0  0
   27.6600   27.0300   33.5900 C   0  0  0  0  0  0  0  0  0  0  0  0
   27.1600   26.7400   32.3400 N   0  0  0  0  0  0  0  0  0  0  0  0
   23.1587   26.6985   35.4013 C   0  0  0  0  0  0  0  0  0  0  0  0
   22.4420   26.1994   36.3704 N   0  0  0  0  0  0  0  0  0  0  0  0
   21.0183   26.0159   36.2652 C   0  0  0  0  0  0  0  0  0  0  0  0
   20.4028   26.1748   35.0885 C   0  0  0  0  0  0  0  0  0  0  0  0
   21.2471   26.3514   33.8381 C   0  0  1  0  0  0  0  0  0  0  0  0
   20.4403   26.8845   32.6332 C   0  0  0  0  0  0  0  0  0  0  0  0
   19.2079   27.5617   33.0545 N   0  0  0  0  0  0  0  0  0  0  0  0
   18.8471   28.8712   32.5059 C   0  0  0  0  0  0  0  0  0  0  0  0
   17.7769   28.7284   31.4143 C   0  0  0  0  0  0  0  0  0  0  0  0
   16.9228   27.6181   31.6349 O   0  0  0  0  0  0  0  0  0  0  0  0
   16.1860   27.7730   32.8324 C   0  0  0  0  0  0  0  0  0  0  0  0
   16.8767   27.0832   33.9812 C   0  0  0  0  0  0  0  0  0  0  0  0
   16.1694   26.6795   34.9455 O   0  0  0  0  0  0  0  0  0  0  0  0
   18.3557   26.9225   34.0287 C   0  0  0  0  0  0  0  0  0  0  0  0
   18.9341   26.2326   35.0171 C   0  0  0  0  0  0  0  0  0  0  0  0
   22.4791   27.2177   34.1523 C   0  0  0  0  0  0  0  0  0  0  0  0
  1  2  1  0
  2  3  2  0
  2  4  1  0
  4  5  2  0
  5  6  1  0
  6  7  2  0
  7  8  1  0
  8  9  2  0
  9 10  1  0
 10 11  2  0
 11 12  1  0
 12 13  2  0
 13 14  1  0
  1 15  1  0
 15 16  2  0
 16 17  1  0
 17 18  2  0
 18 19  1  0
 19 20  1  6
 20 21  1  0
 21 22  1  0
 22 23  1  0
 23 24  1  0
 24 25  1  0
 25 26  1  0
 26 27  2  0
 26 28  1  0
 28 29  2  0
 19 30  1  0
 13  4  1  0
 30 15  1  0
 12  7  1  0
 29 18  1  0
 28 21  1  0
M  END
>  <AAScore>  (1) 
1313.7452079652294

>  <RootName>  (1) 
./4ZLY/04_DeltaGEst/trajectory_05/rank_00/lead_0030

$$$$
