confid_0
     RDKit          3D

 27 31  0  0  0  0  0  0  0  0999 V2000
   24.6900   26.1200   35.5300 N   0  0  0  0  0  0  0  0  0  0  0  0
   25.6600   25.6700   34.6600 C   0  0  0  0  0  0  0  0  0  0  0  0
   25.2400   25.0100   33.7200 O   0  0  0  0  0  0  0  0  0  0  0  0
   27.0300   26.2200   34.8800 C   0  0  0  0  0  0  0  0  0  0  0  0
   27.3500   26.7300   36.0700 N   0  0  0  0  0  0  0  0  0  0  0  0
   28.5700   27.1800   36.3300 N   0  0  0  0  0  0  0  0  0  0  0  0
   29.5300   27.1100   35.3900 C   0  0  0  0  0  0  0  0  0  0  0  0
   30.8300   27.5700   35.6500 C   0  0  0  0  0  0  0  0  0  0  0  0
   31.8500   27.5400   34.6900 C   0  0  0  0  0  0  0  0  0  0  0  0
   31.5100   27.1200   33.4000 C   0  0  0  0  0  0  0  0  0  0  0  0
   30.2200   26.6300   33.1100 C   0  0  0  0  0  0  0  0  0  0  0  0
   29.2400   26.6600   34.1000 C   0  0  0  0  0  0  0  0  0  0  0  0
   27.9300   26.2600   33.8100 C   0  0  0  0  0  0  0  0  0  0  0  0
   27.5200   25.7100   32.6100 N   0  0  0  0  0  0  0  0  0  0  0  0
   31.1555   28.0661   36.9614 N   0  0  0  0  0  0  0  0  0  0  0  0
   31.5025   29.4808   37.1406 C   0  0  0  0  0  0  0  0  0  0  0  0
   30.2463   30.3201   37.4138 C   0  0  0  0  0  0  0  0  0  0  0  0
   29.2106   29.6537   38.2878 C   0  0  0  0  0  0  0  0  0  0  0  0
   27.6032   30.1472   38.3428 S   0  0  0  0  0  0  0  0  0  0  0  0
   27.1472   28.9337   39.4116 C   0  0  0  0  0  0  0  0  0  0  0  0
   28.1985   28.1632   39.7632 N   0  0  0  0  0  0  0  0  0  0  0  0
   29.3485   28.5488   39.1455 C   0  0  0  0  0  0  0  0  0  0  0  0
   30.6367   27.8153   39.3901 C   0  0  0  0  0  0  0  0  0  0  0  0
   31.1752   27.1506   38.1122 C   0  0  0  0  0  0  0  0  0  0  0  0
   25.7719   28.7528   39.9717 C   0  0  0  0  0  0  0  0  0  0  0  0
   24.6605   28.6550   38.9374 C   0  0  0  0  0  0  0  0  0  0  0  0
   25.1453   27.4045   39.6500 C   0  0  0  0  0  0  0  0  0  0  0  0
  1  2  1  0
  2  3  2  0
  2  4  1  0
  4  5  2  0
  5  6  1  0
  6  7  2  0
  7  8  1  0
  8  9  2  0
  9 10  1  0
 10 11  2  0
 11 12  1  0
 12 13  2  0
 13 14  1  0
  8 15  1  0
 15 16  1  0
 16 17  1  0
 17 18  1  0
 18 19  1  0
 19 20  1  0
 20 21  2  0
 21 22  1  0
 22 23  1  0
 23 24  1  0
 20 25  1  0
 25 26  1  0
 26 27  1  0
 13  4  1  0
 24 15  1  0
 27 25  1  0
 12  7  1  0
 22 18  2  0
M  END
>  <AAScore>  (1) 
10.618681100144746

>  <RootName>  (1) 
./4ZLY/04_DeltaGEst/trajectory_02/rank_01/lead_0137

$$$$
