confid_2
     RDKit          3D

 29 32  0  0  0  0  0  0  0  0999 V2000
   25.3300   26.2600   34.7600 N   0  0  0  0  0  0  0  0  0  0  0  0
   26.1200   25.9200   33.6900 C   0  0  0  0  0  0  0  0  0  0  0  0
   25.6300   25.1100   32.9400 O   0  0  0  0  0  0  0  0  0  0  0  0
   27.5200   26.3800   33.4600 C   0  0  0  0  0  0  0  0  0  0  0  0
   28.1600   26.6300   34.6100 N   0  0  0  0  0  0  0  0  0  0  0  0
   29.4800   26.8500   34.5700 N   0  0  0  0  0  0  0  0  0  0  0  0
   30.1900   26.7800   33.4400 C   0  0  0  0  0  0  0  0  0  0  0  0
   31.5600   27.0500   33.5000 C   0  0  0  0  0  0  0  0  0  0  0  0
   32.2700   27.2400   32.3100 C   0  0  0  0  0  0  0  0  0  0  0  0
   31.6100   27.2500   31.0800 C   0  0  0  0  0  0  0  0  0  0  0  0
   30.2700   26.8700   31.0600 C   0  0  0  0  0  0  0  0  0  0  0  0
   29.5100   26.6900   32.2300 C   0  0  0  0  0  0  0  0  0  0  0  0
   28.1400   26.4100   32.2000 C   0  0  0  0  0  0  0  0  0  0  0  0
   27.4300   26.1300   31.0500 N   0  0  0  0  0  0  0  0  0  0  0  0
   27.6256   24.8025   30.4404 C   0  0  0  0  0  0  0  0  0  0  0  0
   26.7354   24.5345   29.2197 C   0  0  0  0  0  0  0  0  0  0  0  0
   27.1119   25.4014   28.0899 N   0  0  0  0  0  0  0  0  0  0  0  0
   26.6478   26.7596   28.0522 C   0  0  0  0  0  0  0  0  0  0  0  0
   26.0978   27.2002   27.0006 O   0  0  0  0  0  0  0  0  0  0  0  0
   26.8877   27.7013   29.2043 C   0  0  0  0  0  0  0  0  0  0  0  0
   26.4571   27.1210   30.5567 C   0  0  0  0  0  0  0  0  0  0  0  0
   27.7868   24.8416   26.9073 C   0  0  0  0  0  0  0  0  0  0  0  0
   29.1732   25.4244   26.7653 C   0  0  0  0  0  0  0  0  0  0  0  0
   30.2314   24.8954   27.5263 C   0  0  0  0  0  0  0  0  0  0  0  0
   31.5340   25.3861   27.3643 C   0  0  0  0  0  0  0  0  0  0  0  0
   31.7924   26.4080   26.4391 C   0  0  0  0  0  0  0  0  0  0  0  0
   30.7413   26.9550   25.6959 C   0  0  0  0  0  0  0  0  0  0  0  0
   29.4319   26.4754   25.8643 C   0  0  0  0  0  0  0  0  0  0  0  0
   28.4264   27.0249   25.1366 F   0  0  0  0  0  0  0  0  0  0  0  0
  1  2  1  0
  2  3  2  0
  2  4  1  0
  4  5  2  0
  5  6  1  0
  6  7  2  0
  7  8  1  0
  8  9  2  0
  9 10  1  0
 10 11  2  0
 11 12  1  0
 12 13  2  0
 13 14  1  0
 14 15  1  0
 15 16  1  0
 16 17  1  0
 17 18  1  0
 18 19  2  0
 18 20  1  0
 20 21  1  0
 17 22  1  0
 22 23  1  0
 23 24  2  0
 24 25  1  0
 25 26  2  0
 26 27  1  0
 27 28  2  0
 28 29  1  0
 13  4  1  0
 21 14  1  0
 28 23  1  0
 12  7  1  0
M  END
>  <AAScore>  (1) 
9.398247469180008

>  <RootName>  (1) 
./4ZLY/04_DeltaGEst/trajectory_03/rank_01/lead_0013

$$$$
