confid_2
     RDKit          3D

 27 29  0  0  0  0  0  0  0  0999 V2000
   24.5700   26.8800   35.5900 N   0  0  0  0  0  0  0  0  0  0  0  0
   25.5000   26.4000   34.6900 C   0  0  0  0  0  0  0  0  0  0  0  0
   25.1700   25.5200   33.9100 O   0  0  0  0  0  0  0  0  0  0  0  0
   26.8400   27.0200   34.7400 C   0  0  0  0  0  0  0  0  0  0  0  0
   27.3800   27.2800   35.9400 N   0  0  0  0  0  0  0  0  0  0  0  0
   28.6200   27.7400   36.0300 N   0  0  0  0  0  0  0  0  0  0  0  0
   29.3800   28.0000   34.9600 C   0  0  0  0  0  0  0  0  0  0  0  0
   30.6700   28.5000   35.1300 C   0  0  0  0  0  0  0  0  0  0  0  0
   31.5400   28.6100   34.0300 C   0  0  0  0  0  0  0  0  0  0  0  0
   31.0900   28.2200   32.7700 C   0  0  0  0  0  0  0  0  0  0  0  0
   29.8000   27.7000   32.6000 C   0  0  0  0  0  0  0  0  0  0  0  0
   28.9600   27.5500   33.7100 C   0  0  0  0  0  0  0  0  0  0  0  0
   27.6600   27.0300   33.5900 C   0  0  0  0  0  0  0  0  0  0  0  0
   27.1600   26.7400   32.3400 N   0  0  0  0  0  0  0  0  0  0  0  0
   33.1693   29.2534   34.2466 S   0  0  0  0  0  6  0  0  0  0  0  0
   33.0923   30.4011   35.2150 O   0  0  0  0  0  0  0  0  0  0  0  0
   33.6618   29.8052   32.9378 O   0  0  0  0  0  0  0  0  0  0  0  0
   34.3627   28.0442   34.8817 C   0  0  2  0  0  0  0  0  0  0  0  0
   34.5448   26.7661   34.0079 C   0  0  1  0  0  0  0  0  0  0  0  0
   33.3887   25.7502   34.1694 C   0  0  0  0  0  0  0  0  0  0  0  0
   32.8761   25.6125   35.6195 C   0  0  1  0  0  0  0  0  0  0  0  0
   32.6672   24.2760   35.9155 F   0  0  0  0  0  0  0  0  0  0  0  0
   33.8423   26.2104   36.6455 C   0  0  0  0  0  0  0  0  0  0  0  0
   34.0817   27.7039   36.3748 C   0  0  0  0  0  0  0  0  0  0  0  0
   34.8370   27.0629   32.5264 C   0  0  0  0  0  0  0  0  0  0  0  0
   35.3130   25.8907   31.8971 O   0  0  0  0  0  0  0  0  0  0  0  0
   35.5584   26.1566   30.5344 C   0  0  0  0  0  0  0  0  0  0  0  0
  1  2  1  0
  2  3  2  0
  2  4  1  0
  4  5  2  0
  5  6  1  0
  6  7  2  0
  7  8  1  0
  8  9  2  0
  9 10  1  0
 10 11  2  0
 11 12  1  0
 12 13  2  0
 13 14  1  0
  9 15  1  0
 15 16  2  0
 15 17  2  0
 18 15  1  6
 18 19  1  0
 19 20  1  0
 20 21  1  0
 21 22  1  1
 21 23  1  0
 23 24  1  0
 19 25  1  6
 25 26  1  0
 26 27  1  0
 13  4  1  0
 24 18  1  0
 12  7  1  0
M  END
>  <AAScore>  (1) 
180.90669342280424

>  <RootName>  (1) 
./4ZLY/04_DeltaGEst/trajectory_05/rank_01/lead_0099

$$$$
