confid_13
     RDKit          3D

 27 30  0  0  0  0  0  0  0  0999 V2000
   24.6900   26.1200   35.5300 N   0  0  0  0  0  0  0  0  0  0  0  0
   25.6600   25.6700   34.6600 C   0  0  0  0  0  0  0  0  0  0  0  0
   25.2400   25.0100   33.7200 O   0  0  0  0  0  0  0  0  0  0  0  0
   27.0300   26.2200   34.8800 C   0  0  0  0  0  0  0  0  0  0  0  0
   27.3500   26.7300   36.0700 N   0  0  0  0  0  0  0  0  0  0  0  0
   28.5700   27.1800   36.3300 N   0  0  0  0  0  0  0  0  0  0  0  0
   29.5300   27.1100   35.3900 C   0  0  0  0  0  0  0  0  0  0  0  0
   30.8300   27.5700   35.6500 C   0  0  0  0  0  0  0  0  0  0  0  0
   31.8500   27.5400   34.6900 C   0  0  0  0  0  0  0  0  0  0  0  0
   31.5100   27.1200   33.4000 C   0  0  0  0  0  0  0  0  0  0  0  0
   30.2200   26.6300   33.1100 C   0  0  0  0  0  0  0  0  0  0  0  0
   29.2400   26.6600   34.1000 C   0  0  0  0  0  0  0  0  0  0  0  0
   27.9300   26.2600   33.8100 C   0  0  0  0  0  0  0  0  0  0  0  0
   27.5200   25.7100   32.6100 N   0  0  0  0  0  0  0  0  0  0  0  0
   23.3144   26.3575   35.1790 C   0  0  0  0  0  0  0  0  0  0  0  0
   22.3575   26.2006   36.1298 N   0  0  0  0  0  0  0  0  0  0  0  0
   21.0456   26.4309   35.8756 C   0  0  0  0  0  0  0  0  0  0  0  0
   20.6318   26.8538   34.6094 C   0  0  0  0  0  0  0  0  0  0  0  0
   19.2680   27.0506   34.3956 O   0  0  0  0  0  0  0  0  0  0  0  0
   18.6602   28.3354   34.4514 C   0  0  0  0  0  0  0  0  0  0  0  0
   19.2412   29.2860   33.4024 C   0  0  0  0  0  0  0  0  0  0  0  0
   19.0616   28.7696   32.0274 N   0  0  0  0  0  0  0  0  0  0  0  0
   19.8193   27.5279   31.7110 C   0  0  0  0  0  0  0  0  0  0  0  0
   21.2963   27.5248   32.1724 C   0  0  0  0  0  0  0  0  0  0  0  0
   21.5963   27.0408   33.5874 C   0  0  0  0  0  0  0  0  0  0  0  0
   22.9459   26.8028   33.8986 C   0  0  0  0  0  0  0  0  0  0  0  0
   19.3358   29.8327   31.0439 C   0  0  0  0  0  0  0  0  0  0  0  0
  1  2  1  0
  2  3  2  0
  2  4  1  0
  4  5  2  0
  5  6  1  0
  6  7  2  0
  7  8  1  0
  8  9  2  0
  9 10  1  0
 10 11  2  0
 11 12  1  0
 12 13  2  0
 13 14  1  0
  1 15  1  0
 15 16  2  0
 16 17  1  0
 17 18  2  0
 18 19  1  0
 19 20  1  0
 20 21  1  0
 21 22  1  0
 22 23  1  0
 23 24  1  0
 24 25  1  0
 25 26  2  0
 22 27  1  0
 13  4  1  0
 26 15  1  0
 12  7  1  0
 25 18  1  0
M  END
>  <AAScore>  (1) 
1272.3073388745074

>  <RootName>  (1) 
./4ZLY/04_DeltaGEst/trajectory_02/rank_00/lead_0271

$$$$
