confid_16
     RDKit          3D

 29 32  0  0  0  0  0  0  0  0999 V2000
   24.5500   26.3900   36.2500 N   0  0  0  0  0  0  0  0  0  0  0  0
   25.6000   26.1300   35.4000 C   0  0  0  0  0  0  0  0  0  0  0  0
   25.4300   25.4300   34.4200 O   0  0  0  0  0  0  0  0  0  0  0  0
   26.9800   26.6300   35.7100 C   0  0  0  0  0  0  0  0  0  0  0  0
   27.3200   26.8200   36.9800 N   0  0  0  0  0  0  0  0  0  0  0  0
   28.4700   27.4000   37.3100 N   0  0  0  0  0  0  0  0  0  0  0  0
   29.4000   27.6300   36.3700 C   0  0  0  0  0  0  0  0  0  0  0  0
   30.6600   28.0500   36.8000 C   0  0  0  0  0  0  0  0  0  0  0  0
   31.5700   28.3600   35.7800 C   0  0  0  0  0  0  0  0  0  0  0  0
   31.3700   28.1000   34.4300 C   0  0  0  0  0  0  0  0  0  0  0  0
   30.1200   27.5900   34.0500 C   0  0  0  0  0  0  0  0  0  0  0  0
   29.1500   27.3400   35.0300 C   0  0  0  0  0  0  0  0  0  0  0  0
   27.8800   26.8900   34.6600 C   0  0  0  0  0  0  0  0  0  0  0  0
   27.4800   26.6100   33.3700 N   0  0  0  0  0  0  0  0  0  0  0  0
   30.9954   28.3085   38.2236 C   0  0  0  0  0  0  0  0  0  0  0  0
   30.7654   27.3198   39.2040 C   0  0  0  0  0  0  0  0  0  0  0  0
   31.0759   27.6048   40.5341 C   0  0  0  0  0  0  0  0  0  0  0  0
   30.8930   26.7313   41.7178 C   0  0  0  0  0  0  0  0  0  0  0  0
   31.3565   27.5717   42.8247 N   0  0  0  0  0  0  0  0  0  0  0  0
   31.3528   27.1867   44.2113 C   0  0  0  0  0  0  0  0  0  0  0  0
   31.7212   28.0157   45.0871 O   0  0  0  0  0  0  0  0  0  0  0  0
   30.9222   25.8146   44.6546 C   0  0  0  0  0  0  0  0  0  0  0  0
   31.9677   25.1741   45.3587 O   0  0  0  0  0  0  0  0  0  0  0  0
   32.8238   24.5040   44.4575 C   0  0  0  0  0  0  0  0  0  0  0  0
   34.0134   23.9457   45.2223 C   0  0  0  0  0  0  0  0  0  0  0  0
   31.8160   28.8839   42.3648 C   0  0  0  0  0  0  0  0  0  0  0  0
   31.6032   28.8196   40.8999 C   0  0  0  0  0  0  0  0  0  0  0  0
   31.8578   29.8111   39.9543 C   0  0  0  0  0  0  0  0  0  0  0  0
   31.5539   29.5508   38.6090 C   0  0  0  0  0  0  0  0  0  0  0  0
  1  2  1  0
  2  3  2  0
  2  4  1  0
  4  5  2  0
  5  6  1  0
  6  7  2  0
  7  8  1  0
  8  9  2  0
  9 10  1  0
 10 11  2  0
 11 12  1  0
 12 13  2  0
 13 14  1  0
  8 15  1  0
 15 16  2  0
 16 17  1  0
 17 18  1  0
 18 19  1  0
 19 20  1  0
 20 21  2  0
 20 22  1  0
 22 23  1  0
 23 24  1  0
 24 25  1  0
 19 26  1  0
 26 27  1  0
 27 28  1  0
 28 29  2  0
 13  4  1  0
 29 15  1  0
 12  7  1  0
 27 17  2  0
M  END
>  <AAScore>  (1) 
59.14394283785474

>  <RootName>  (1) 
./4ZLY/04_DeltaGEst/trajectory_01/rank_01/lead_0462

$$$$
