confid_19
     RDKit          3D

 30 34  0  0  0  0  0  0  0  0999 V2000
   25.3300   26.2600   34.7600 N   0  0  0  0  0  0  0  0  0  0  0  0
   26.1200   25.9200   33.6900 C   0  0  0  0  0  0  0  0  0  0  0  0
   25.6300   25.1100   32.9400 O   0  0  0  0  0  0  0  0  0  0  0  0
   27.5200   26.3800   33.4600 C   0  0  0  0  0  0  0  0  0  0  0  0
   28.1600   26.6300   34.6100 N   0  0  0  0  0  0  0  0  0  0  0  0
   29.4800   26.8500   34.5700 N   0  0  0  0  0  0  0  0  0  0  0  0
   30.1900   26.7800   33.4400 C   0  0  0  0  0  0  0  0  0  0  0  0
   31.5600   27.0500   33.5000 C   0  0  0  0  0  0  0  0  0  0  0  0
   32.2700   27.2400   32.3100 C   0  0  0  0  0  0  0  0  0  0  0  0
   31.6100   27.2500   31.0800 C   0  0  0  0  0  0  0  0  0  0  0  0
   30.2700   26.8700   31.0600 C   0  0  0  0  0  0  0  0  0  0  0  0
   29.5100   26.6900   32.2300 C   0  0  0  0  0  0  0  0  0  0  0  0
   28.1400   26.4100   32.2000 C   0  0  0  0  0  0  0  0  0  0  0  0
   27.4300   26.1300   31.0500 N   0  0  0  0  0  0  0  0  0  0  0  0
   26.4880   27.1176   30.5120 C   0  0  0  0  0  0  0  0  0  0  0  0
   26.6516   27.2739   28.9843 C   0  0  0  0  0  0  0  0  0  0  0  0
   27.3552   26.1336   28.3470 N   0  0  0  0  0  0  0  0  0  0  0  0
   27.0801   26.1072   26.8966 C   0  0  0  0  0  0  0  0  0  0  0  0
   28.0924   25.2544   26.1833 C   0  0  0  0  0  0  0  0  0  0  0  0
   29.4611   25.4484   26.1918 C   0  0  0  0  0  0  0  0  0  0  0  0
   30.0605   24.4408   25.5288 N   0  0  0  0  0  0  0  0  0  0  0  0
   29.1184   23.6116   25.1050 N   0  0  0  0  0  0  0  0  0  0  0  0
   27.9051   24.0843   25.4629 C   0  0  0  0  0  0  0  0  0  0  0  0
   26.6208   23.3478   25.2136 C   0  0  0  0  0  0  0  0  0  0  0  0
   29.4165   22.4044   24.3236 C   0  0  0  0  0  0  0  0  0  0  0  0
   28.5590   21.1670   24.6970 C   0  0  0  0  0  0  0  0  0  0  0  0
   27.8661   21.2441   26.0692 C   0  0  0  0  0  0  0  0  0  0  0  0
   26.5514   22.0530   26.0381 C   0  0  0  0  0  0  0  0  0  0  0  0
   26.9921   24.8555   28.9882 C   0  0  0  0  0  0  0  0  0  0  0  0
   27.5873   24.8252   30.3954 C   0  0  0  0  0  0  0  0  0  0  0  0
  1  2  1  0
  2  3  2  0
  2  4  1  0
  4  5  2  0
  5  6  1  0
  6  7  2  0
  7  8  1  0
  8  9  2  0
  9 10  1  0
 10 11  2  0
 11 12  1  0
 12 13  2  0
 13 14  1  0
 14 15  1  0
 15 16  1  0
 16 17  1  0
 17 18  1  0
 18 19  1  0
 19 20  1  0
 20 21  2  0
 21 22  1  0
 22 23  1  0
 23 24  1  0
 22 25  1  0
 25 26  1  0
 26 27  1  0
 27 28  1  0
 17 29  1  0
 29 30  1  0
 13  4  1  0
 30 14  1  0
 12  7  1  0
 23 19  2  0
 28 24  1  0
M  END
>  <AAScore>  (1) 
-2.3796881584179457

>  <RootName>  (1) 
./4ZLY/04_DeltaGEst/trajectory_03/rank_01/lead_0395

$$$$
