confid_19
     RDKit          3D

 26 29  0  0  0  0  0  0  0  0999 V2000
   24.2000   26.2400   35.6900 N   0  0  0  0  0  0  0  0  0  0  0  0
   24.8500   26.2800   34.4800 C   0  0  0  0  0  0  0  0  0  0  0  0
   24.3100   25.7400   33.5400 O   0  0  0  0  0  0  0  0  0  0  0  0
   26.1800   26.9700   34.4700 C   0  0  0  0  0  0  0  0  0  0  0  0
   26.6500   27.6000   35.5500 N   0  0  0  0  0  0  0  0  0  0  0  0
   27.7900   28.2700   35.6200 N   0  0  0  0  0  0  0  0  0  0  0  0
   28.5400   28.3000   34.5100 C   0  0  0  0  0  0  0  0  0  0  0  0
   29.7700   28.9400   34.5600 C   0  0  0  0  0  0  0  0  0  0  0  0
   30.7000   28.8900   33.5000 C   0  0  0  0  0  0  0  0  0  0  0  0
   30.3700   28.1400   32.3700 C   0  0  0  0  0  0  0  0  0  0  0  0
   29.1200   27.5200   32.2800 C   0  0  0  0  0  0  0  0  0  0  0  0
   28.2100   27.6100   33.3300 C   0  0  0  0  0  0  0  0  0  0  0  0
   26.9700   26.9700   33.3100 C   0  0  0  0  0  0  0  0  0  0  0  0
   26.5300   26.2400   32.2200 N   0  0  0  0  0  0  0  0  0  0  0  0
   30.1486   29.6551   35.7501 N   0  0  0  0  0  0  0  0  0  0  0  0
   30.4534   29.0181   37.0314 C   0  0  0  0  0  0  0  0  0  0  0  0
   31.2433   30.0667   37.8551 C   0  0  0  0  0  0  0  0  0  0  0  0
   31.3342   31.2483   37.0064 N   0  0  0  0  0  0  0  0  0  0  0  0
   32.0757   32.4658   37.3276 C   0  0  0  0  0  0  0  0  0  0  0  0
   31.1166   33.6598   37.4596 C   0  0  1  0  0  0  0  0  0  0  0  0
   30.2570   33.6299   38.7235 C   0  0  0  0  0  0  0  0  0  0  0  0
   30.9367   34.9025   39.2109 C   0  0  1  0  0  0  0  0  0  0  0  0
   31.6914   34.6826   40.3513 F   0  0  0  0  0  0  0  0  0  0  0  0
   31.7981   34.9345   37.9553 C   0  0  0  0  0  0  0  0  0  0  0  0
   30.7144   30.9506   35.7740 C   0  0  0  0  0  0  0  0  0  0  0  0
   30.6803   31.7471   34.7976 O   0  0  0  0  0  0  0  0  0  0  0  0
  1  2  1  0
  2  3  2  0
  2  4  1  0
  4  5  2  0
  5  6  1  0
  6  7  2  0
  7  8  1  0
  8  9  2  0
  9 10  1  0
 10 11  2  0
 11 12  1  0
 12 13  2  0
 13 14  1  0
  8 15  1  0
 15 16  1  0
 16 17  1  0
 17 18  1  0
 18 19  1  0
 20 19  1  1
 20 21  1  0
 21 22  1  0
 22 23  1  1
 22 24  1  0
 18 25  1  0
 25 26  2  0
 13  4  1  0
 25 15  1  0
 12  7  1  0
 24 20  1  0
M  END
>  <AAScore>  (1) 
-7.497302733987268

>  <RootName>  (1) 
./4ZLY/04_DeltaGEst/trajectory_04/rank_01/lead_0396

$$$$
