confid_10
     RDKit          3D

 25 26  0  0  0  0  0  0  0  0999 V2000
   24.5700   26.8800   35.5900 N   0  0  0  0  0  0  0  0  0  0  0  0
   25.5000   26.4000   34.6900 C   0  0  0  0  0  0  0  0  0  0  0  0
   25.1700   25.5200   33.9100 O   0  0  0  0  0  0  0  0  0  0  0  0
   26.8400   27.0200   34.7400 C   0  0  0  0  0  0  0  0  0  0  0  0
   27.3800   27.2800   35.9400 N   0  0  0  0  0  0  0  0  0  0  0  0
   28.6200   27.7400   36.0300 N   0  0  0  0  0  0  0  0  0  0  0  0
   29.3800   28.0000   34.9600 C   0  0  0  0  0  0  0  0  0  0  0  0
   30.6700   28.5000   35.1300 C   0  0  0  0  0  0  0  0  0  0  0  0
   31.5400   28.6100   34.0300 C   0  0  0  0  0  0  0  0  0  0  0  0
   31.0900   28.2200   32.7700 C   0  0  0  0  0  0  0  0  0  0  0  0
   29.8000   27.7000   32.6000 C   0  0  0  0  0  0  0  0  0  0  0  0
   28.9600   27.5500   33.7100 C   0  0  0  0  0  0  0  0  0  0  0  0
   27.6600   27.0300   33.5900 C   0  0  0  0  0  0  0  0  0  0  0  0
   27.1600   26.7400   32.3400 N   0  0  0  0  0  0  0  0  0  0  0  0
   33.1639   29.2664   34.2345 S   0  0  0  0  0  6  0  0  0  0  0  0
   33.6681   28.8952   35.6017 O   0  0  0  0  0  0  0  0  0  0  0  0
   34.0718   28.6241   33.2230 O   0  0  0  0  0  0  0  0  0  0  0  0
   33.2274   31.0057   34.0204 N   0  0  0  0  0  0  0  0  0  0  0  0
   32.8424   31.7610   35.2280 C   0  0  0  0  0  0  0  0  0  0  0  0
   33.7520   31.5133   36.2397 F   0  0  0  0  0  0  0  0  0  0  0  0
   32.8642   33.1213   34.9704 F   0  0  0  0  0  0  0  0  0  0  0  0
   31.5798   31.3996   35.6641 F   0  0  0  0  0  0  0  0  0  0  0  0
   32.6123   31.4545   32.7499 C   0  0  0  0  0  0  0  0  0  0  0  0
   31.0975   31.7448   32.8280 C   0  0  0  0  0  0  0  0  0  0  0  0
   30.4985   31.9125   31.4348 C   0  0  0  0  0  0  0  0  0  0  0  0
  1  2  1  0
  2  3  2  0
  2  4  1  0
  4  5  2  0
  5  6  1  0
  6  7  2  0
  7  8  1  0
  8  9  2  0
  9 10  1  0
 10 11  2  0
 11 12  1  0
 12 13  2  0
 13 14  1  0
  9 15  1  0
 15 16  2  0
 15 17  2  0
 15 18  1  0
 18 19  1  0
 19 20  1  0
 19 21  1  0
 19 22  1  0
 18 23  1  0
 23 24  1  0
 24 25  1  0
 13  4  1  0
 12  7  1  0
M  END
>  <AAScore>  (1) 
-5.793365929120104

>  <RootName>  (1) 
./4ZLY/04_DeltaGEst/trajectory_05/rank_01/lead_0079

$$$$
