confid_9
     RDKit          3D

 28 32  0  0  0  0  0  0  0  0999 V2000
   24.5700   26.8800   35.5900 N   0  0  0  0  0  0  0  0  0  0  0  0
   25.5000   26.4000   34.6900 C   0  0  0  0  0  0  0  0  0  0  0  0
   25.1700   25.5200   33.9100 O   0  0  0  0  0  0  0  0  0  0  0  0
   26.8400   27.0200   34.7400 C   0  0  0  0  0  0  0  0  0  0  0  0
   27.3800   27.2800   35.9400 N   0  0  0  0  0  0  0  0  0  0  0  0
   28.6200   27.7400   36.0300 N   0  0  0  0  0  0  0  0  0  0  0  0
   29.3800   28.0000   34.9600 C   0  0  0  0  0  0  0  0  0  0  0  0
   30.6700   28.5000   35.1300 C   0  0  0  0  0  0  0  0  0  0  0  0
   31.5400   28.6100   34.0300 C   0  0  0  0  0  0  0  0  0  0  0  0
   31.0900   28.2200   32.7700 C   0  0  0  0  0  0  0  0  0  0  0  0
   29.8000   27.7000   32.6000 C   0  0  0  0  0  0  0  0  0  0  0  0
   28.9600   27.5500   33.7100 C   0  0  0  0  0  0  0  0  0  0  0  0
   27.6600   27.0300   33.5900 C   0  0  0  0  0  0  0  0  0  0  0  0
   27.1600   26.7400   32.3400 N   0  0  0  0  0  0  0  0  0  0  0  0
   23.1805   26.5062   35.6265 C   0  0  0  0  0  0  0  0  0  0  0  0
   22.3873   26.9902   36.6186 N   0  0  0  0  0  0  0  0  0  0  0  0
   21.0704   26.6666   36.6894 C   0  0  0  0  0  0  0  0  0  0  0  0
   20.5042   25.8181   35.7327 C   0  0  0  0  0  0  0  0  0  0  0  0
   19.0253   25.5090   35.7616 C   0  0  0  0  0  0  0  0  0  0  0  0
   18.6709   24.3194   34.9553 N   0  0  0  0  0  0  0  0  0  0  0  0
   19.2641   24.4040   33.6042 C   0  0  0  0  0  0  0  0  0  0  0  0
   20.8006   24.4138   33.6470 C   0  0  0  0  0  0  0  0  0  0  0  0
   21.3263   25.3525   34.6942 C   0  0  0  0  0  0  0  0  0  0  0  0
   22.6418   25.6930   34.6770 N   0  0  0  0  0  0  0  0  0  0  0  0
   18.9947   23.0490   35.6428 C   0  0  0  0  0  0  0  0  0  0  0  0
   17.8642   22.6807   36.6154 C   0  0  0  0  0  0  0  0  0  0  0  0
   17.7290   21.1957   36.9177 C   0  0  0  0  0  0  0  0  0  0  0  0
   16.7150   21.8857   36.0161 C   0  0  0  0  0  0  0  0  0  0  0  0
  1  2  1  0
  2  3  2  0
  2  4  1  0
  4  5  2  0
  5  6  1  0
  6  7  2  0
  7  8  1  0
  8  9  2  0
  9 10  1  0
 10 11  2  0
 11 12  1  0
 12 13  2  0
 13 14  1  0
  1 15  1  0
 15 16  2  0
 16 17  1  0
 17 18  2  0
 18 19  1  0
 19 20  1  0
 20 21  1  0
 21 22  1  0
 22 23  1  0
 23 24  2  0
 20 25  1  0
 25 26  1  0
 26 27  1  0
 27 28  1  0
 13  4  1  0
 24 15  1  0
 28 26  1  0
 12  7  1  0
 23 18  1  0
M  END
>  <AAScore>  (1) 
4022.662868120375

>  <RootName>  (1) 
./4ZLY/04_DeltaGEst/trajectory_05/rank_00/lead_0246

$$$$
