confid_19
     RDKit          3D

 29 32  0  0  0  0  0  0  0  0999 V2000
   24.5500   26.3900   36.2500 N   0  0  0  0  0  0  0  0  0  0  0  0
   25.6000   26.1300   35.4000 C   0  0  0  0  0  0  0  0  0  0  0  0
   25.4300   25.4300   34.4200 O   0  0  0  0  0  0  0  0  0  0  0  0
   26.9800   26.6300   35.7100 C   0  0  0  0  0  0  0  0  0  0  0  0
   27.3200   26.8200   36.9800 N   0  0  0  0  0  0  0  0  0  0  0  0
   28.4700   27.4000   37.3100 N   0  0  0  0  0  0  0  0  0  0  0  0
   29.4000   27.6300   36.3700 C   0  0  0  0  0  0  0  0  0  0  0  0
   30.6600   28.0500   36.8000 C   0  0  0  0  0  0  0  0  0  0  0  0
   31.5700   28.3600   35.7800 C   0  0  0  0  0  0  0  0  0  0  0  0
   31.3700   28.1000   34.4300 C   0  0  0  0  0  0  0  0  0  0  0  0
   30.1200   27.5900   34.0500 C   0  0  0  0  0  0  0  0  0  0  0  0
   29.1500   27.3400   35.0300 C   0  0  0  0  0  0  0  0  0  0  0  0
   27.8800   26.8900   34.6600 C   0  0  0  0  0  0  0  0  0  0  0  0
   27.4800   26.6100   33.3700 N   0  0  0  0  0  0  0  0  0  0  0  0
   23.2325   25.7501   36.1124 C   0  0  0  0  0  0  0  0  0  0  0  0
   23.3144   24.2832   36.6017 C   0  0  0  0  0  0  0  0  0  0  0  0
   21.9686   23.8034   37.1678 C   0  0  0  0  0  0  0  0  0  0  0  0
   21.5111   24.6177   38.3278 N   0  0  0  0  0  0  0  0  0  0  0  0
   21.8384   23.9777   39.6190 C   0  0  0  0  0  0  0  0  0  0  0  0
   20.9423   22.8018   39.8686 C   0  0  0  0  0  0  0  0  0  0  0  0
   21.3186   21.4854   40.0241 C   0  0  0  0  0  0  0  0  0  0  0  0
   20.2002   20.7595   40.2188 N   0  0  0  0  0  0  0  0  0  0  0  0
   20.1390   19.3102   40.3588 C   0  0  0  0  0  0  0  0  0  0  0  0
   19.8960   18.7368   39.1248 F   0  0  0  0  0  0  0  0  0  0  0  0
   19.1246   18.9645   41.2318 F   0  0  0  0  0  0  0  0  0  0  0  0
   19.1337   21.5444   40.1782 N   0  0  0  0  0  0  0  0  0  0  0  0
   19.5642   22.8054   39.9738 C   0  0  0  0  0  0  0  0  0  0  0  0
   21.9965   26.0228   38.3094 C   0  0  0  0  0  0  0  0  0  0  0  0
   22.1545   26.5534   36.8794 C   0  0  0  0  0  0  0  0  0  0  0  0
  1  2  1  0
  2  3  2  0
  2  4  1  0
  4  5  2  0
  5  6  1  0
  6  7  2  0
  7  8  1  0
  8  9  2  0
  9 10  1  0
 10 11  2  0
 11 12  1  0
 12 13  2  0
 13 14  1  0
  1 15  1  0
 15 16  1  0
 16 17  1  0
 17 18  1  0
 18 19  1  0
 19 20  1  0
 20 21  2  0
 21 22  1  0
 22 23  1  0
 23 24  1  0
 23 25  1  0
 22 26  1  0
 26 27  2  0
 18 28  1  0
 28 29  1  0
 13  4  1  0
 29 15  1  0
 12  7  1  0
 27 20  1  0
M  END
>  <AAScore>  (1) 
1654.4093017269934

>  <RootName>  (1) 
./4ZLY/04_DeltaGEst/trajectory_01/rank_00/lead_0090

$$$$
