confid_12
     RDKit          3D

 28 31  0  0  0  0  0  0  0  0999 V2000
   25.3300   26.2600   34.7600 N   0  0  0  0  0  0  0  0  0  0  0  0
   26.1200   25.9200   33.6900 C   0  0  0  0  0  0  0  0  0  0  0  0
   25.6300   25.1100   32.9400 O   0  0  0  0  0  0  0  0  0  0  0  0
   27.5200   26.3800   33.4600 C   0  0  0  0  0  0  0  0  0  0  0  0
   28.1600   26.6300   34.6100 N   0  0  0  0  0  0  0  0  0  0  0  0
   29.4800   26.8500   34.5700 N   0  0  0  0  0  0  0  0  0  0  0  0
   30.1900   26.7800   33.4400 C   0  0  0  0  0  0  0  0  0  0  0  0
   31.5600   27.0500   33.5000 C   0  0  0  0  0  0  0  0  0  0  0  0
   32.2700   27.2400   32.3100 C   0  0  0  0  0  0  0  0  0  0  0  0
   31.6100   27.2500   31.0800 C   0  0  0  0  0  0  0  0  0  0  0  0
   30.2700   26.8700   31.0600 C   0  0  0  0  0  0  0  0  0  0  0  0
   29.5100   26.6900   32.2300 C   0  0  0  0  0  0  0  0  0  0  0  0
   28.1400   26.4100   32.2000 C   0  0  0  0  0  0  0  0  0  0  0  0
   27.4300   26.1300   31.0500 N   0  0  0  0  0  0  0  0  0  0  0  0
   26.6292   27.1952   30.4349 C   0  0  0  0  0  0  0  0  0  0  0  0
   26.2373   26.8478   28.9947 C   0  0  0  0  0  0  0  0  0  0  0  0
   25.7074   25.4777   28.9119 N   0  0  0  0  0  0  0  0  0  0  0  0
   24.6327   25.1477   28.0073 C   0  0  0  0  0  0  0  0  0  0  0  0
   24.4378   25.8596   26.8097 C   0  0  0  0  0  0  0  0  0  0  0  0
   23.3938   25.4983   25.9451 C   0  0  0  0  0  0  0  0  0  0  0  0
   23.1562   26.2760   24.6812 C   0  0  0  0  0  0  0  0  0  0  0  0
   22.1910   27.2615   24.9186 O   0  0  0  0  0  0  0  0  0  0  0  0
   22.5448   24.4399   26.3022 C   0  0  0  0  0  0  0  0  0  0  0  0
   21.5065   24.0791   25.5060 F   0  0  0  0  0  0  0  0  0  0  0  0
   22.7760   23.7467   27.4908 C   0  0  0  0  0  0  0  0  0  0  0  0
   23.8027   24.1084   28.3033 N   0  0  0  0  0  0  0  0  0  0  0  0
   26.3165   24.3960   29.7013 C   0  0  0  0  0  0  0  0  0  0  0  0
   27.6191   24.8423   30.3723 C   0  0  0  0  0  0  0  0  0  0  0  0
  1  2  1  0
  2  3  2  0
  2  4  1  0
  4  5  2  0
  5  6  1  0
  6  7  2  0
  7  8  1  0
  8  9  2  0
  9 10  1  0
 10 11  2  0
 11 12  1  0
 12 13  2  0
 13 14  1  0
 14 15  1  0
 15 16  1  0
 16 17  1  0
 17 18  1  0
 18 19  2  0
 19 20  1  0
 20 21  1  0
 21 22  1  0
 20 23  2  0
 23 24  1  0
 23 25  1  0
 25 26  2  0
 17 27  1  0
 27 28  1  0
 13  4  1  0
 28 14  1  0
 12  7  1  0
 26 18  1  0
M  END
>  <AAScore>  (1) 
644.2046799471324

>  <RootName>  (1) 
./4ZLY/04_DeltaGEst/trajectory_03/rank_01/lead_0318

$$$$
