confid_3
     RDKit          3D

 27 30  0  0  0  0  0  0  0  0999 V2000
   24.6900   26.1200   35.5300 N   0  0  0  0  0  0  0  0  0  0  0  0
   25.6600   25.6700   34.6600 C   0  0  0  0  0  0  0  0  0  0  0  0
   25.2400   25.0100   33.7200 O   0  0  0  0  0  0  0  0  0  0  0  0
   27.0300   26.2200   34.8800 C   0  0  0  0  0  0  0  0  0  0  0  0
   27.3500   26.7300   36.0700 N   0  0  0  0  0  0  0  0  0  0  0  0
   28.5700   27.1800   36.3300 N   0  0  0  0  0  0  0  0  0  0  0  0
   29.5300   27.1100   35.3900 C   0  0  0  0  0  0  0  0  0  0  0  0
   30.8300   27.5700   35.6500 C   0  0  0  0  0  0  0  0  0  0  0  0
   31.8500   27.5400   34.6900 C   0  0  0  0  0  0  0  0  0  0  0  0
   31.5100   27.1200   33.4000 C   0  0  0  0  0  0  0  0  0  0  0  0
   30.2200   26.6300   33.1100 C   0  0  0  0  0  0  0  0  0  0  0  0
   29.2400   26.6600   34.1000 C   0  0  0  0  0  0  0  0  0  0  0  0
   27.9300   26.2600   33.8100 C   0  0  0  0  0  0  0  0  0  0  0  0
   27.5200   25.7100   32.6100 N   0  0  0  0  0  0  0  0  0  0  0  0
   31.1665   28.0918   36.9946 C   0  0  0  0  0  0  0  0  0  0  0  0
   30.6463   29.3438   37.3815 C   0  0  0  0  0  0  0  0  0  0  0  0
   30.9789   29.8400   38.6373 C   0  0  0  0  0  0  0  0  0  0  0  0
   30.6047   31.0709   39.2853 C   0  0  0  0  0  0  0  0  0  0  0  0
   29.8436   31.9548   38.8098 O   0  0  0  0  0  0  0  0  0  0  0  0
   31.2161   31.1369   40.5705 N   0  0  0  0  0  0  0  0  0  0  0  0
   31.9921   29.9115   40.7851 C   0  0  0  0  0  0  0  0  0  0  0  0
   31.7950   29.1510   39.5037 C   0  0  0  0  0  0  0  0  0  0  0  0
   32.3205   27.9091   39.1537 C   0  0  0  0  0  0  0  0  0  0  0  0
   31.9988   27.3591   37.8932 C   0  0  0  0  0  0  0  0  0  0  0  0
   32.5635   26.0157   37.5155 C   0  0  0  0  0  0  0  0  0  0  0  0
   31.0278   32.1967   41.5576 C   0  0  0  0  0  0  0  0  0  0  0  0
   31.7546   33.4637   41.1232 C   0  0  0  0  0  0  0  0  0  0  0  0
  1  2  1  0
  2  3  2  0
  2  4  1  0
  4  5  2  0
  5  6  1  0
  6  7  2  0
  7  8  1  0
  8  9  2  0
  9 10  1  0
 10 11  2  0
 11 12  1  0
 12 13  2  0
 13 14  1  0
  8 15  1  0
 15 16  2  0
 16 17  1  0
 17 18  1  0
 18 19  2  0
 18 20  1  0
 20 21  1  0
 21 22  1  0
 22 23  1  0
 23 24  2  0
 24 25  1  0
 20 26  1  0
 26 27  1  0
 13  4  1  0
 24 15  1  0
 12  7  1  0
 22 17  2  0
M  END
>  <AAScore>  (1) 
83.60317042249946

>  <RootName>  (1) 
./4ZLY/04_DeltaGEst/trajectory_02/rank_01/lead_0467

$$$$
