confid_17
     RDKit          3D

 30 32  0  0  0  0  0  0  0  0999 V2000
   24.5700   26.8800   35.5900 N   0  0  0  0  0  0  0  0  0  0  0  0
   25.5000   26.4000   34.6900 C   0  0  0  0  0  0  0  0  0  0  0  0
   25.1700   25.5200   33.9100 O   0  0  0  0  0  0  0  0  0  0  0  0
   26.8400   27.0200   34.7400 C   0  0  0  0  0  0  0  0  0  0  0  0
   27.3800   27.2800   35.9400 N   0  0  0  0  0  0  0  0  0  0  0  0
   28.6200   27.7400   36.0300 N   0  0  0  0  0  0  0  0  0  0  0  0
   29.3800   28.0000   34.9600 C   0  0  0  0  0  0  0  0  0  0  0  0
   30.6700   28.5000   35.1300 C   0  0  0  0  0  0  0  0  0  0  0  0
   31.5400   28.6100   34.0300 C   0  0  0  0  0  0  0  0  0  0  0  0
   31.0900   28.2200   32.7700 C   0  0  0  0  0  0  0  0  0  0  0  0
   29.8000   27.7000   32.6000 C   0  0  0  0  0  0  0  0  0  0  0  0
   28.9600   27.5500   33.7100 C   0  0  0  0  0  0  0  0  0  0  0  0
   27.6600   27.0300   33.5900 C   0  0  0  0  0  0  0  0  0  0  0  0
   27.1600   26.7400   32.3400 N   0  0  0  0  0  0  0  0  0  0  0  0
   33.1685   29.2567   34.2447 S   0  0  0  0  0  6  0  0  0  0  0  0
   34.0647   28.7318   33.1571 O   0  0  0  0  0  0  0  0  0  0  0  0
   33.7138   28.7841   35.5637 O   0  0  0  0  0  0  0  0  0  0  0  0
   33.1633   31.0070   34.2010 N   0  0  0  0  0  0  0  0  0  0  0  0
   32.2692   31.5435   35.2424 C   0  0  0  0  0  0  0  0  0  0  0  0
   32.6091   33.0183   35.6334 C   0  0  2  0  0  0  0  0  0  0  0  0
   34.0451   33.2519   36.3166 C   0  0  0  0  0  0  0  0  0  0  0  0
   33.9764   34.3174   37.4504 C   0  0  0  0  0  0  0  0  0  0  0  0
   34.6069   31.9710   36.9867 C   0  0  0  0  0  0  0  0  0  0  0  0
   35.0950   33.8259   35.2984 C   0  0  0  0  0  0  0  0  0  0  0  0
   35.4114   32.9979   34.0392 C   0  0  0  0  0  0  0  0  0  0  0  0
   34.4560   33.3227   32.9529 N   0  0  0  0  0  0  0  0  0  0  0  0
   35.0101   34.3477   32.0514 C   0  0  0  0  0  0  0  0  0  0  0  0
   34.0419   32.1252   32.1929 C   0  0  0  0  0  0  0  0  0  0  0  0
   32.8153   31.4959   32.8482 C   0  0  0  0  0  0  0  0  0  0  0  0
   31.4152   33.5363   36.4701 C   0  0  0  0  0  0  0  0  0  0  0  0
  1  2  1  0
  2  3  2  0
  2  4  1  0
  4  5  2  0
  5  6  1  0
  6  7  2  0
  7  8  1  0
  8  9  2  0
  9 10  1  0
 10 11  2  0
 11 12  1  0
 12 13  2  0
 13 14  1  0
  9 15  1  0
 15 16  2  0
 15 17  2  0
 15 18  1  0
 18 19  1  0
 19 20  1  0
 20 21  1  0
 21 22  1  0
 21 23  1  0
 21 24  1  0
 24 25  1  0
 25 26  1  0
 26 27  1  0
 26 28  1  0
 28 29  1  0
 20 30  1  1
 13  4  1  0
 29 18  1  0
 12  7  1  0
M  END
>  <AAScore>  (1) 
-6.8496588263754346

>  <RootName>  (1) 
./4ZLY/04_DeltaGEst/trajectory_05/rank_01/lead_0408

$$$$
