confid_5
     RDKit          3D

 27 30  0  0  0  0  0  0  0  0999 V2000
   24.5500   26.3900   36.2500 N   0  0  0  0  0  0  0  0  0  0  0  0
   25.6000   26.1300   35.4000 C   0  0  0  0  0  0  0  0  0  0  0  0
   25.4300   25.4300   34.4200 O   0  0  0  0  0  0  0  0  0  0  0  0
   26.9800   26.6300   35.7100 C   0  0  0  0  0  0  0  0  0  0  0  0
   27.3200   26.8200   36.9800 N   0  0  0  0  0  0  0  0  0  0  0  0
   28.4700   27.4000   37.3100 N   0  0  0  0  0  0  0  0  0  0  0  0
   29.4000   27.6300   36.3700 C   0  0  0  0  0  0  0  0  0  0  0  0
   30.6600   28.0500   36.8000 C   0  0  0  0  0  0  0  0  0  0  0  0
   31.5700   28.3600   35.7800 C   0  0  0  0  0  0  0  0  0  0  0  0
   31.3700   28.1000   34.4300 C   0  0  0  0  0  0  0  0  0  0  0  0
   30.1200   27.5900   34.0500 C   0  0  0  0  0  0  0  0  0  0  0  0
   29.1500   27.3400   35.0300 C   0  0  0  0  0  0  0  0  0  0  0  0
   27.8800   26.8900   34.6600 C   0  0  0  0  0  0  0  0  0  0  0  0
   27.4800   26.6100   33.3700 N   0  0  0  0  0  0  0  0  0  0  0  0
   30.9584   28.3108   38.1839 N   0  0  0  0  0  0  0  0  0  0  0  0
   31.1258   27.1649   39.0965 C   0  0  0  0  0  0  0  0  0  0  0  0
   30.3660   27.3243   40.4306 C   0  0  0  0  0  0  0  0  0  0  0  0
   29.1298   28.1788   40.2999 C   0  0  0  0  0  0  0  0  0  0  0  0
   27.9124   27.5938   40.4397 N   0  0  0  0  0  0  0  0  0  0  0  0
   26.7584   28.2803   40.2622 C   0  0  0  0  0  0  0  0  0  0  0  0
   26.7853   29.6241   39.8885 C   0  0  0  0  0  0  0  0  0  0  0  0
   25.2387   30.4385   39.6643 Cl  0  0  0  0  0  0  0  0  0  0  0  0
   28.0282   30.2732   39.7058 C   0  0  0  0  0  0  0  0  0  0  0  0
   28.0854   31.7153   39.2573 C   0  0  0  0  0  0  0  0  0  0  0  0
   29.2225   29.5500   39.9657 C   0  0  0  0  0  0  0  0  0  0  0  0
   30.6041   30.1711   39.8311 C   0  0  0  0  0  0  0  0  0  0  0  0
   31.3489   29.6755   38.5788 C   0  0  0  0  0  0  0  0  0  0  0  0
  1  2  1  0
  2  3  2  0
  2  4  1  0
  4  5  2  0
  5  6  1  0
  6  7  2  0
  7  8  1  0
  8  9  2  0
  9 10  1  0
 10 11  2  0
 11 12  1  0
 12 13  2  0
 13 14  1  0
  8 15  1  0
 15 16  1  0
 16 17  1  0
 17 18  1  0
 18 19  2  0
 19 20  1  0
 20 21  2  0
 21 22  1  0
 21 23  1  0
 23 24  1  0
 23 25  2  0
 25 26  1  0
 26 27  1  0
 13  4  1  0
 27 15  1  0
 12  7  1  0
 25 18  1  0
M  END
>  <AAScore>  (1) 
316.19019159472833

>  <RootName>  (1) 
./4ZLY/04_DeltaGEst/trajectory_01/rank_01/lead_0465

$$$$
