confid_9
     RDKit          3D

 30 33  0  0  0  0  0  0  0  0999 V2000
   24.5500   26.3900   36.2500 N   0  0  0  0  0  0  0  0  0  0  0  0
   25.6000   26.1300   35.4000 C   0  0  0  0  0  0  0  0  0  0  0  0
   25.4300   25.4300   34.4200 O   0  0  0  0  0  0  0  0  0  0  0  0
   26.9800   26.6300   35.7100 C   0  0  0  0  0  0  0  0  0  0  0  0
   27.3200   26.8200   36.9800 N   0  0  0  0  0  0  0  0  0  0  0  0
   28.4700   27.4000   37.3100 N   0  0  0  0  0  0  0  0  0  0  0  0
   29.4000   27.6300   36.3700 C   0  0  0  0  0  0  0  0  0  0  0  0
   30.6600   28.0500   36.8000 C   0  0  0  0  0  0  0  0  0  0  0  0
   31.5700   28.3600   35.7800 C   0  0  0  0  0  0  0  0  0  0  0  0
   31.3700   28.1000   34.4300 C   0  0  0  0  0  0  0  0  0  0  0  0
   30.1200   27.5900   34.0500 C   0  0  0  0  0  0  0  0  0  0  0  0
   29.1500   27.3400   35.0300 C   0  0  0  0  0  0  0  0  0  0  0  0
   27.8800   26.8900   34.6600 C   0  0  0  0  0  0  0  0  0  0  0  0
   27.4800   26.6100   33.3700 N   0  0  0  0  0  0  0  0  0  0  0  0
   23.2160   25.7876   36.1130 C   0  0  0  0  0  0  0  0  0  0  0  0
   23.0453   24.6684   37.1622 C   0  0  0  0  0  0  0  0  0  0  0  0
   22.6102   25.2185   38.5261 C   0  0  0  0  0  0  0  0  0  0  0  0
   21.4126   26.0664   38.4083 N   0  0  0  0  0  0  0  0  0  0  0  0
   20.6240   26.3818   39.5733 C   0  0  0  0  0  0  0  0  0  0  0  0
   19.3799   26.5543   39.4569 O   0  0  0  0  0  0  0  0  0  0  0  0
   21.2528   26.5861   40.9242 C   0  0  0  0  0  0  0  0  0  0  0  0
   21.3924   28.0590   41.2059 C   0  0  0  0  0  0  0  0  0  0  0  0
   22.5103   28.7795   40.7428 C   0  0  0  0  0  0  0  0  0  0  0  0
   23.5034   28.1556   40.0612 F   0  0  0  0  0  0  0  0  0  0  0  0
   22.6071   30.1547   40.9802 C   0  0  0  0  0  0  0  0  0  0  0  0
   21.5916   30.8220   41.6697 C   0  0  0  0  0  0  0  0  0  0  0  0
   20.4734   30.1170   42.1211 C   0  0  0  0  0  0  0  0  0  0  0  0
   20.3700   28.7426   41.8871 C   0  0  0  0  0  0  0  0  0  0  0  0
   20.9375   26.4752   37.0793 C   0  0  0  0  0  0  0  0  0  0  0  0
   22.1274   26.8893   36.2091 C   0  0  0  0  0  0  0  0  0  0  0  0
  1  2  1  0
  2  3  2  0
  2  4  1  0
  4  5  2  0
  5  6  1  0
  6  7  2  0
  7  8  1  0
  8  9  2  0
  9 10  1  0
 10 11  2  0
 11 12  1  0
 12 13  2  0
 13 14  1  0
  1 15  1  0
 15 16  1  0
 16 17  1  0
 17 18  1  0
 18 19  1  0
 19 20  2  0
 19 21  1  0
 21 22  1  0
 22 23  2  0
 23 24  1  0
 23 25  1  0
 25 26  2  0
 26 27  1  0
 27 28  2  0
 18 29  1  0
 29 30  1  0
 13  4  1  0
 30 15  1  0
 12  7  1  0
 28 22  1  0
M  END
>  <AAScore>  (1) 
123.37626774717576

>  <RootName>  (1) 
./4ZLY/04_DeltaGEst/trajectory_01/rank_00/lead_0469

$$$$
