confid_8
     RDKit          3D

 30 33  0  0  0  0  0  0  0  0999 V2000
   25.3300   26.2600   34.7600 N   0  0  0  0  0  0  0  0  0  0  0  0
   26.1200   25.9200   33.6900 C   0  0  0  0  0  0  0  0  0  0  0  0
   25.6300   25.1100   32.9400 O   0  0  0  0  0  0  0  0  0  0  0  0
   27.5200   26.3800   33.4600 C   0  0  0  0  0  0  0  0  0  0  0  0
   28.1600   26.6300   34.6100 N   0  0  0  0  0  0  0  0  0  0  0  0
   29.4800   26.8500   34.5700 N   0  0  0  0  0  0  0  0  0  0  0  0
   30.1900   26.7800   33.4400 C   0  0  0  0  0  0  0  0  0  0  0  0
   31.5600   27.0500   33.5000 C   0  0  0  0  0  0  0  0  0  0  0  0
   32.2700   27.2400   32.3100 C   0  0  0  0  0  0  0  0  0  0  0  0
   31.6100   27.2500   31.0800 C   0  0  0  0  0  0  0  0  0  0  0  0
   30.2700   26.8700   31.0600 C   0  0  0  0  0  0  0  0  0  0  0  0
   29.5100   26.6900   32.2300 C   0  0  0  0  0  0  0  0  0  0  0  0
   28.1400   26.4100   32.2000 C   0  0  0  0  0  0  0  0  0  0  0  0
   27.4300   26.1300   31.0500 N   0  0  0  0  0  0  0  0  0  0  0  0
   27.5166   24.8039   30.4277 C   0  0  0  0  0  0  0  0  0  0  0  0
   27.5075   24.9316   28.9016 C   0  0  0  0  0  0  0  0  0  0  0  0
   26.3882   25.7929   28.4619 N   0  0  0  0  0  0  0  0  0  0  0  0
   26.3002   25.8255   26.9904 C   0  0  0  0  0  0  0  0  0  0  0  0
   25.5673   24.6141   26.5024 C   0  0  0  0  0  0  0  0  0  0  0  0
   24.4633   24.3118   27.0301 O   0  0  0  0  0  0  0  0  0  0  0  0
   26.0739   23.8483   25.3995 N   0  0  0  0  0  0  0  0  0  0  0  0
   25.6236   22.5160   25.1114 C   0  0  0  0  0  0  0  0  0  0  0  0
   25.4637   22.1073   23.7784 C   0  0  0  0  0  0  0  0  0  0  0  0
   25.0269   20.8115   23.4858 C   0  0  0  0  0  0  0  0  0  0  0  0
   24.7694   19.9095   24.5220 C   0  0  0  0  0  0  0  0  0  0  0  0
   24.9424   20.3027   25.8518 C   0  0  0  0  0  0  0  0  0  0  0  0
   24.6957   19.4246   26.8565 F   0  0  0  0  0  0  0  0  0  0  0  0
   25.3701   21.6000   26.1479 C   0  0  0  0  0  0  0  0  0  0  0  0
   26.5426   27.1508   29.0148 C   0  0  0  0  0  0  0  0  0  0  0  0
   26.4521   27.0936   30.5384 C   0  0  0  0  0  0  0  0  0  0  0  0
  1  2  1  0
  2  3  2  0
  2  4  1  0
  4  5  2  0
  5  6  1  0
  6  7  2  0
  7  8  1  0
  8  9  2  0
  9 10  1  0
 10 11  2  0
 11 12  1  0
 12 13  2  0
 13 14  1  0
 14 15  1  0
 15 16  1  0
 16 17  1  0
 17 18  1  0
 18 19  1  0
 19 20  2  0
 19 21  1  0
 21 22  1  0
 22 23  2  0
 23 24  1  0
 24 25  2  0
 25 26  1  0
 26 27  1  0
 26 28  2  0
 17 29  1  0
 29 30  1  0
 13  4  1  0
 30 14  1  0
 12  7  1  0
 28 22  1  0
M  END
>  <AAScore>  (1) 
9.152879241074196

>  <RootName>  (1) 
./4ZLY/04_DeltaGEst/trajectory_03/rank_01/lead_0148

$$$$
