confid_7
     RDKit          3D

 31 35  0  0  0  0  0  0  0  0999 V2000
   24.5700   26.8800   35.5900 N   0  0  0  0  0  0  0  0  0  0  0  0
   25.5000   26.4000   34.6900 C   0  0  0  0  0  0  0  0  0  0  0  0
   25.1700   25.5200   33.9100 O   0  0  0  0  0  0  0  0  0  0  0  0
   26.8400   27.0200   34.7400 C   0  0  0  0  0  0  0  0  0  0  0  0
   27.3800   27.2800   35.9400 N   0  0  0  0  0  0  0  0  0  0  0  0
   28.6200   27.7400   36.0300 N   0  0  0  0  0  0  0  0  0  0  0  0
   29.3800   28.0000   34.9600 C   0  0  0  0  0  0  0  0  0  0  0  0
   30.6700   28.5000   35.1300 C   0  0  0  0  0  0  0  0  0  0  0  0
   31.5400   28.6100   34.0300 C   0  0  0  0  0  0  0  0  0  0  0  0
   31.0900   28.2200   32.7700 C   0  0  0  0  0  0  0  0  0  0  0  0
   29.8000   27.7000   32.6000 C   0  0  0  0  0  0  0  0  0  0  0  0
   28.9600   27.5500   33.7100 C   0  0  0  0  0  0  0  0  0  0  0  0
   27.6600   27.0300   33.5900 C   0  0  0  0  0  0  0  0  0  0  0  0
   27.1600   26.7400   32.3400 N   0  0  0  0  0  0  0  0  0  0  0  0
   23.1635   26.5809   35.5396 C   0  0  0  0  0  0  0  0  0  0  0  0
   22.5478   26.3810   36.6670 N   0  0  0  0  0  0  0  0  0  0  0  0
   21.1835   26.0609   37.0003 C   0  0  0  0  0  0  0  0  0  0  0  0
   20.0751   26.1532   36.2268 C   0  0  0  0  0  0  0  0  0  0  0  0
   19.9983   26.5806   34.7703 C   0  0  1  0  0  0  0  0  0  0  0  0
   18.7110   27.3954   34.5478 C   0  0  0  0  0  0  0  0  0  0  0  0
   17.5283   26.6689   35.0280 N   0  0  0  0  0  0  0  0  0  0  0  0
   16.2244   27.1232   34.5271 C   0  0  0  0  0  0  0  0  0  0  0  0
   15.0897   26.1969   34.9555 C   0  0  0  0  0  0  0  0  0  0  0  0
   15.1573   25.9765   36.4087 N   0  0  0  0  0  0  0  0  0  0  0  0
   13.9104   25.3845   36.9200 C   0  0  0  0  0  0  0  0  0  0  0  0
   16.3746   25.2327   36.8186 C   0  0  1  0  0  0  0  0  0  0  0  0
   16.3549   23.7370   36.4297 C   0  0  0  0  0  0  0  0  0  0  0  0
   17.6148   25.8913   36.2446 C   0  0  0  0  0  0  0  0  0  0  0  0
   18.8056   25.6741   36.8279 C   0  0  0  0  0  0  0  0  0  0  0  0
   21.1938   27.3880   34.2578 C   0  0  0  0  0  0  0  0  0  0  0  0
   22.4550   26.5371   34.2206 C   0  0  0  0  0  0  0  0  0  0  0  0
  1  2  1  0
  2  3  2  0
  2  4  1  0
  4  5  2  0
  5  6  1  0
  6  7  2  0
  7  8  1  0
  8  9  2  0
  9 10  1  0
 10 11  2  0
 11 12  1  0
 12 13  2  0
 13 14  1  0
  1 15  1  0
 15 16  2  0
 16 17  1  0
 17 18  2  0
 18 19  1  0
 19 20  1  1
 20 21  1  0
 21 22  1  0
 22 23  1  0
 23 24  1  0
 24 25  1  0
 24 26  1  0
 26 27  1  6
 26 28  1  0
 28 29  2  0
 19 30  1  0
 30 31  1  0
 13  4  1  0
 31 15  1  0
 12  7  1  0
 29 18  1  0
 28 21  1  0
M  END
>  <AAScore>  (1) 
1600.0456661440005

>  <RootName>  (1) 
./4ZLY/04_DeltaGEst/trajectory_05/rank_00/lead_0462

$$$$
