confid_5
     RDKit          3D

 28 31  0  0  0  0  0  0  0  0999 V2000
   24.4800   26.1000   36.1300 N   0  0  0  0  0  0  0  0  0  0  0  0
   25.2500   26.2500   34.9900 C   0  0  0  0  0  0  0  0  0  0  0  0
   24.7400   25.7600   33.9900 O   0  0  0  0  0  0  0  0  0  0  0  0
   26.5900   26.8900   34.9600 C   0  0  0  0  0  0  0  0  0  0  0  0
   27.0600   27.2400   36.1600 N   0  0  0  0  0  0  0  0  0  0  0  0
   28.3000   27.7100   36.2400 N   0  0  0  0  0  0  0  0  0  0  0  0
   29.0500   27.9600   35.1500 C   0  0  0  0  0  0  0  0  0  0  0  0
   30.3400   28.4900   35.2600 C   0  0  0  0  0  0  0  0  0  0  0  0
   31.1100   28.8200   34.1400 C   0  0  0  0  0  0  0  0  0  0  0  0
   30.5200   28.6700   32.8800 C   0  0  0  0  0  0  0  0  0  0  0  0
   29.2900   28.0200   32.7700 C   0  0  0  0  0  0  0  0  0  0  0  0
   28.5200   27.7100   33.8900 C   0  0  0  0  0  0  0  0  0  0  0  0
   27.2700   27.0800   33.7600 C   0  0  0  0  0  0  0  0  0  0  0  0
   26.7500   26.8800   32.4900 N   0  0  0  0  0  0  0  0  0  0  0  0
   23.1230   25.5435   36.1361 C   0  0  0  0  0  0  0  0  0  0  0  0
   22.2148   26.3945   35.3401 N   0  0  0  0  0  0  0  0  0  0  0  0
   21.9573   27.6631   36.0344 C   0  0  0  0  0  0  0  0  0  0  0  0
   21.1870   28.6197   35.1248 C   0  0  0  0  0  0  0  0  0  0  0  0
   20.1326   27.9743   34.3110 N   0  0  0  0  0  0  0  0  0  0  0  0
   19.2700   28.8131   33.4784 C   0  0  0  0  0  0  0  0  0  0  0  0
   18.2767   28.2460   32.6412 C   0  0  0  0  0  0  0  0  0  0  0  0
   17.4543   29.0522   31.8489 C   0  0  0  0  0  0  0  0  0  0  0  0
   17.6013   30.4375   31.8656 C   0  0  0  0  0  0  0  0  0  0  0  0
   16.8019   31.2150   31.0945 F   0  0  0  0  0  0  0  0  0  0  0  0
   18.5753   31.0216   32.6725 C   0  0  0  0  0  0  0  0  0  0  0  0
   19.4027   30.2244   33.4685 C   0  0  0  0  0  0  0  0  0  0  0  0
   20.0369   26.5020   34.1848 C   0  0  0  0  0  0  0  0  0  0  0  0
   20.9267   25.7167   35.1526 C   0  0  0  0  0  0  0  0  0  0  0  0
  1  2  1  0
  2  3  2  0
  2  4  1  0
  4  5  2  0
  5  6  1  0
  6  7  2  0
  7  8  1  0
  8  9  2  0
  9 10  1  0
 10 11  2  0
 11 12  1  0
 12 13  2  0
 13 14  1  0
  1 15  1  0
 15 16  1  0
 16 17  1  0
 17 18  1  0
 18 19  1  0
 19 20  1  0
 20 21  2  0
 21 22  1  0
 22 23  2  0
 23 24  1  0
 23 25  1  0
 25 26  2  0
 19 27  1  0
 27 28  1  0
 13  4  1  0
 28 16  1  0
 12  7  1  0
 26 20  1  0
M  END
>  <AAScore>  (1) 
536.2001432739063

>  <RootName>  (1) 
./4ZLY/04_DeltaGEst/trajectory_00/rank_00/lead_0223

$$$$
