confid_15
     RDKit          3D

 25 28  0  0  0  0  0  0  0  0999 V2000
   24.2000   26.2400   35.6900 N   0  0  0  0  0  0  0  0  0  0  0  0
   24.8500   26.2800   34.4800 C   0  0  0  0  0  0  0  0  0  0  0  0
   24.3100   25.7400   33.5400 O   0  0  0  0  0  0  0  0  0  0  0  0
   26.1800   26.9700   34.4700 C   0  0  0  0  0  0  0  0  0  0  0  0
   26.6500   27.6000   35.5500 N   0  0  0  0  0  0  0  0  0  0  0  0
   27.7900   28.2700   35.6200 N   0  0  0  0  0  0  0  0  0  0  0  0
   28.5400   28.3000   34.5100 C   0  0  0  0  0  0  0  0  0  0  0  0
   29.7700   28.9400   34.5600 C   0  0  0  0  0  0  0  0  0  0  0  0
   30.7000   28.8900   33.5000 C   0  0  0  0  0  0  0  0  0  0  0  0
   30.3700   28.1400   32.3700 C   0  0  0  0  0  0  0  0  0  0  0  0
   29.1200   27.5200   32.2800 C   0  0  0  0  0  0  0  0  0  0  0  0
   28.2100   27.6100   33.3300 C   0  0  0  0  0  0  0  0  0  0  0  0
   26.9700   26.9700   33.3100 C   0  0  0  0  0  0  0  0  0  0  0  0
   26.5300   26.2400   32.2200 N   0  0  0  0  0  0  0  0  0  0  0  0
   30.1402   29.6754   35.7388 N   0  0  0  0  0  0  0  0  0  0  0  0
   31.1259   29.0983   36.6623 C   0  0  0  0  0  0  0  0  0  0  0  0
   30.5095   28.8470   38.0407 C   0  0  0  0  0  0  0  0  0  0  0  0
   30.3223   30.1285   38.7932 C   0  0  0  0  0  0  0  0  0  0  0  0
   31.0171   30.4786   40.2865 S   0  0  0  0  0  0  0  0  0  0  0  0
   30.3610   32.0192   40.4156 C   0  0  0  0  0  0  0  0  0  0  0  0
   29.5891   32.2873   39.2958 C   0  0  0  0  0  0  0  0  0  0  0  0
   29.5662   31.2250   38.3785 C   0  0  0  0  0  0  0  0  0  0  0  0
   28.7955   31.2678   37.0894 C   0  0  0  0  0  0  0  0  0  0  0  0
   29.7102   31.0741   35.8746 C   0  0  0  0  0  0  0  0  0  0  0  0
   30.5563   32.8672   41.4538 F   0  0  0  0  0  0  0  0  0  0  0  0
  1  2  1  0
  2  3  2  0
  2  4  1  0
  4  5  2  0
  5  6  1  0
  6  7  2  0
  7  8  1  0
  8  9  2  0
  9 10  1  0
 10 11  2  0
 11 12  1  0
 12 13  2  0
 13 14  1  0
  8 15  1  0
 15 16  1  0
 16 17  1  0
 17 18  1  0
 18 19  1  0
 19 20  1  0
 20 21  2  0
 21 22  1  0
 22 23  1  0
 23 24  1  0
 20 25  1  0
 13  4  1  0
 24 15  1  0
 12  7  1  0
 22 18  2  0
M  END
>  <AAScore>  (1) 
-8.16989788151134

>  <RootName>  (1) 
./4ZLY/04_DeltaGEst/trajectory_04/rank_01/lead_0060

$$$$
