confid_14
     RDKit          3D

 28 32  0  0  0  0  0  0  0  0999 V2000
   24.4800   26.1000   36.1300 N   0  0  0  0  0  0  0  0  0  0  0  0
   25.2500   26.2500   34.9900 C   0  0  0  0  0  0  0  0  0  0  0  0
   24.7400   25.7600   33.9900 O   0  0  0  0  0  0  0  0  0  0  0  0
   26.5900   26.8900   34.9600 C   0  0  0  0  0  0  0  0  0  0  0  0
   27.0600   27.2400   36.1600 N   0  0  0  0  0  0  0  0  0  0  0  0
   28.3000   27.7100   36.2400 N   0  0  0  0  0  0  0  0  0  0  0  0
   29.0500   27.9600   35.1500 C   0  0  0  0  0  0  0  0  0  0  0  0
   30.3400   28.4900   35.2600 C   0  0  0  0  0  0  0  0  0  0  0  0
   31.1100   28.8200   34.1400 C   0  0  0  0  0  0  0  0  0  0  0  0
   30.5200   28.6700   32.8800 C   0  0  0  0  0  0  0  0  0  0  0  0
   29.2900   28.0200   32.7700 C   0  0  0  0  0  0  0  0  0  0  0  0
   28.5200   27.7100   33.8900 C   0  0  0  0  0  0  0  0  0  0  0  0
   27.2700   27.0800   33.7600 C   0  0  0  0  0  0  0  0  0  0  0  0
   26.7500   26.8800   32.4900 N   0  0  0  0  0  0  0  0  0  0  0  0
   23.4505   25.1082   36.3236 C   0  0  0  0  0  0  0  0  0  0  0  0
   23.3163   24.0618   35.4610 N   0  0  0  0  0  0  0  0  0  0  0  0
   22.3711   23.1006   35.6298 C   0  0  0  0  0  0  0  0  0  0  0  0
   21.4881   23.1655   36.7147 C   0  0  0  0  0  0  0  0  0  0  0  0
   20.4635   22.0869   36.9412 C   0  0  0  0  0  0  0  0  0  0  0  0
   19.2533   22.6517   37.5503 N   0  0  0  0  0  0  0  0  0  0  0  0
   19.3955   23.6256   38.6029 C   0  0  0  0  0  0  0  0  0  0  0  0
   18.4180   23.9089   39.3474 O   0  0  0  0  0  0  0  0  0  0  0  0
   20.7226   24.2858   38.8516 C   0  0  0  0  0  0  0  0  0  0  0  0
   21.6073   24.2259   37.6313 C   0  0  0  0  0  0  0  0  0  0  0  0
   22.6029   25.1930   37.4372 C   0  0  0  0  0  0  0  0  0  0  0  0
   17.9561   22.0123   37.3068 C   0  0  0  0  0  0  0  0  0  0  0  0
   17.5052   22.0481   35.8526 C   0  0  0  0  0  0  0  0  0  0  0  0
   16.8630   22.9765   36.8667 C   0  0  0  0  0  0  0  0  0  0  0  0
  1  2  1  0
  2  3  2  0
  2  4  1  0
  4  5  2  0
  5  6  1  0
  6  7  2  0
  7  8  1  0
  8  9  2  0
  9 10  1  0
 10 11  2  0
 11 12  1  0
 12 13  2  0
 13 14  1  0
  1 15  1  0
 15 16  2  0
 16 17  1  0
 17 18  2  0
 18 19  1  0
 19 20  1  0
 20 21  1  0
 21 22  2  0
 21 23  1  0
 23 24  1  0
 24 25  2  0
 20 26  1  0
 26 27  1  0
 27 28  1  0
 13  4  1  0
 25 15  1  0
 28 26  1  0
 12  7  1  0
 24 18  1  0
M  END
>  <AAScore>  (1) 
2150.669041453333

>  <RootName>  (1) 
./4ZLY/04_DeltaGEst/trajectory_00/rank_00/lead_0417

$$$$
