confid_18
     RDKit          3D

 28 32  0  0  0  0  0  0  0  0999 V2000
   24.2000   26.2400   35.6900 N   0  0  0  0  0  0  0  0  0  0  0  0
   24.8500   26.2800   34.4800 C   0  0  0  0  0  0  0  0  0  0  0  0
   24.3100   25.7400   33.5400 O   0  0  0  0  0  0  0  0  0  0  0  0
   26.1800   26.9700   34.4700 C   0  0  0  0  0  0  0  0  0  0  0  0
   26.6500   27.6000   35.5500 N   0  0  0  0  0  0  0  0  0  0  0  0
   27.7900   28.2700   35.6200 N   0  0  0  0  0  0  0  0  0  0  0  0
   28.5400   28.3000   34.5100 C   0  0  0  0  0  0  0  0  0  0  0  0
   29.7700   28.9400   34.5600 C   0  0  0  0  0  0  0  0  0  0  0  0
   30.7000   28.8900   33.5000 C   0  0  0  0  0  0  0  0  0  0  0  0
   30.3700   28.1400   32.3700 C   0  0  0  0  0  0  0  0  0  0  0  0
   29.1200   27.5200   32.2800 C   0  0  0  0  0  0  0  0  0  0  0  0
   28.2100   27.6100   33.3300 C   0  0  0  0  0  0  0  0  0  0  0  0
   26.9700   26.9700   33.3100 C   0  0  0  0  0  0  0  0  0  0  0  0
   26.5300   26.2400   32.2200 N   0  0  0  0  0  0  0  0  0  0  0  0
   30.1347   29.6915   35.7324 N   0  0  0  0  0  0  0  0  0  0  0  0
   31.3279   29.3212   36.5034 C   0  0  0  0  0  0  0  0  0  0  0  0
   32.3693   30.4543   36.4877 C   0  0  0  0  0  0  0  0  0  0  0  0
   31.7137   31.8574   36.3484 C   0  0  0  0  0  0  0  0  0  0  0  0
   31.9077   32.5273   35.0110 C   0  0  0  0  0  0  0  0  0  0  0  0
   32.7423   33.6422   35.5083 N   0  0  0  0  0  0  0  0  0  0  0  0
   32.5783   32.9919   36.8240 C   0  0  0  0  0  0  0  0  0  0  0  0
   33.4315   34.8185   35.0599 C   0  0  0  0  0  0  0  0  0  0  0  0
   34.1749   35.4195   35.8791 O   0  0  0  0  0  0  0  0  0  0  0  0
   33.2948   35.4192   33.6787 C   0  0  0  0  0  0  0  0  0  0  0  0
   31.8584   35.6014   33.2132 C   0  0  0  0  0  0  0  0  0  0  0  0
   32.7615   34.5906   32.5208 C   0  0  0  0  0  0  0  0  0  0  0  0
   30.2587   31.9056   36.8621 C   0  0  0  0  0  0  0  0  0  0  0  0
   29.3873   30.9121   36.0759 C   0  0  0  0  0  0  0  0  0  0  0  0
  1  2  1  0
  2  3  2  0
  2  4  1  0
  4  5  2  0
  5  6  1  0
  6  7  2  0
  7  8  1  0
  8  9  2  0
  9 10  1  0
 10 11  2  0
 11 12  1  0
 12 13  2  0
 13 14  1  0
  8 15  1  0
 15 16  1  0
 16 17  1  0
 17 18  1  0
 18 19  1  0
 19 20  1  0
 20 21  1  0
 20 22  1  0
 22 23  2  0
 22 24  1  0
 24 25  1  0
 25 26  1  0
 18 27  1  0
 27 28  1  0
 13  4  1  0
 28 15  1  0
 12  7  1  0
 21 18  1  0
 26 24  1  0
M  END
>  <AAScore>  (1) 
-8.492139610143942

>  <RootName>  (1) 
./4ZLY/04_DeltaGEst/trajectory_04/rank_01/lead_0366

$$$$
