confid_7
     RDKit          3D

 27 30  0  0  0  0  0  0  0  0999 V2000
   25.3300   26.2600   34.7600 N   0  0  0  0  0  0  0  0  0  0  0  0
   26.1200   25.9200   33.6900 C   0  0  0  0  0  0  0  0  0  0  0  0
   25.6300   25.1100   32.9400 O   0  0  0  0  0  0  0  0  0  0  0  0
   27.5200   26.3800   33.4600 C   0  0  0  0  0  0  0  0  0  0  0  0
   28.1600   26.6300   34.6100 N   0  0  0  0  0  0  0  0  0  0  0  0
   29.4800   26.8500   34.5700 N   0  0  0  0  0  0  0  0  0  0  0  0
   30.1900   26.7800   33.4400 C   0  0  0  0  0  0  0  0  0  0  0  0
   31.5600   27.0500   33.5000 C   0  0  0  0  0  0  0  0  0  0  0  0
   32.2700   27.2400   32.3100 C   0  0  0  0  0  0  0  0  0  0  0  0
   31.6100   27.2500   31.0800 C   0  0  0  0  0  0  0  0  0  0  0  0
   30.2700   26.8700   31.0600 C   0  0  0  0  0  0  0  0  0  0  0  0
   29.5100   26.6900   32.2300 C   0  0  0  0  0  0  0  0  0  0  0  0
   28.1400   26.4100   32.2000 C   0  0  0  0  0  0  0  0  0  0  0  0
   27.4300   26.1300   31.0500 N   0  0  0  0  0  0  0  0  0  0  0  0
   24.4333   25.3144   35.3622 C   0  0  0  0  0  0  0  0  0  0  0  0
   24.5992   24.8679   36.6330 N   0  0  0  0  0  0  0  0  0  0  0  0
   23.6178   23.9529   36.7416 C   0  0  0  0  0  0  0  0  0  0  0  0
   22.8257   23.5864   37.9349 C   0  0  0  0  0  0  0  0  0  0  0  0
   21.4698   23.1609   37.2987 C   0  0  0  0  0  0  0  0  0  0  0  0
   21.5285   23.5186   35.8697 N   0  0  0  0  0  0  0  0  0  0  0  0
   22.8724   23.9135   35.6355 C   0  0  0  0  0  0  0  0  0  0  0  0
   23.3407   24.7966   34.7372 N   0  0  0  0  0  0  0  0  0  0  0  0
   22.6006   25.3949   33.6264 C   0  0  0  0  0  0  0  0  0  0  0  0
   20.7225   22.8326   34.8555 C   0  0  0  0  0  0  0  0  0  0  0  0
   19.4855   23.6653   34.4525 C   0  0  0  0  0  0  0  0  0  0  0  0
   18.4190   23.6727   35.5589 C   0  0  0  0  0  0  0  0  0  0  0  0
   18.8810   23.1114   33.1556 C   0  0  0  0  0  0  0  0  0  0  0  0
  1  2  1  0
  2  3  2  0
  2  4  1  0
  4  5  2  0
  5  6  1  0
  6  7  2  0
  7  8  1  0
  8  9  2  0
  9 10  1  0
 10 11  2  0
 11 12  1  0
 12 13  2  0
 13 14  1  0
  1 15  1  0
 15 16  2  0
 16 17  1  0
 17 18  1  0
 18 19  1  0
 19 20  1  0
 20 21  1  0
 21 22  1  0
 22 23  1  0
 20 24  1  0
 24 25  1  0
 25 26  1  0
 25 27  1  0
 13  4  1  0
 22 15  1  0
 12  7  1  0
 21 17  2  0
M  END
>  <AAScore>  (1) 
1438.2979266927457

>  <RootName>  (1) 
./4ZLY/04_DeltaGEst/trajectory_03/rank_00/lead_0494

$$$$
