confid_2
     RDKit          3D

 28 31  0  0  0  0  0  0  0  0999 V2000
   24.5700   26.8800   35.5900 N   0  0  0  0  0  0  0  0  0  0  0  0
   25.5000   26.4000   34.6900 C   0  0  0  0  0  0  0  0  0  0  0  0
   25.1700   25.5200   33.9100 O   0  0  0  0  0  0  0  0  0  0  0  0
   26.8400   27.0200   34.7400 C   0  0  0  0  0  0  0  0  0  0  0  0
   27.3800   27.2800   35.9400 N   0  0  0  0  0  0  0  0  0  0  0  0
   28.6200   27.7400   36.0300 N   0  0  0  0  0  0  0  0  0  0  0  0
   29.3800   28.0000   34.9600 C   0  0  0  0  0  0  0  0  0  0  0  0
   30.6700   28.5000   35.1300 C   0  0  0  0  0  0  0  0  0  0  0  0
   31.5400   28.6100   34.0300 C   0  0  0  0  0  0  0  0  0  0  0  0
   31.0900   28.2200   32.7700 C   0  0  0  0  0  0  0  0  0  0  0  0
   29.8000   27.7000   32.6000 C   0  0  0  0  0  0  0  0  0  0  0  0
   28.9600   27.5500   33.7100 C   0  0  0  0  0  0  0  0  0  0  0  0
   27.6600   27.0300   33.5900 C   0  0  0  0  0  0  0  0  0  0  0  0
   27.1600   26.7400   32.3400 N   0  0  0  0  0  0  0  0  0  0  0  0
   23.3968   26.1783   36.0380 C   0  0  0  0  0  0  0  0  0  0  0  0
   22.5161   26.7660   36.7802 N   0  0  0  0  0  0  0  0  0  0  0  0
   21.5744   25.7845   37.1802 C   0  0  0  0  0  0  0  0  0  0  0  0
   21.8992   24.5933   36.7092 C   0  0  0  0  0  0  0  0  0  0  0  0
   21.0391   23.3688   36.7994 C   0  0  0  0  0  0  0  0  0  0  0  0
   21.0023   22.6508   35.5736 O   0  0  0  0  0  0  0  0  0  0  0  0
   22.2075   21.9706   35.2004 C   0  0  2  0  0  0  0  0  0  0  0  0
   22.9492   21.2943   36.3924 C   0  0  0  0  0  0  0  0  0  0  0  0
   23.1724   22.9318   34.4165 C   0  0  0  0  0  0  0  0  0  0  0  0
   22.8928   24.3090   34.5972 O   0  0  0  0  0  0  0  0  0  0  0  0
   23.1605   24.6960   35.9258 C   0  0  1  0  0  0  0  0  0  0  0  0
   21.7548   20.8357   34.2487 C   0  0  0  0  0  0  0  0  0  0  0  0
   22.8674   20.0991   33.7758 O   0  0  0  0  0  0  0  0  0  0  0  0
   22.4158   19.0422   32.9594 C   0  0  0  0  0  0  0  0  0  0  0  0
  1  2  1  0
  2  3  2  0
  2  4  1  0
  4  5  2  0
  5  6  1  0
  6  7  2  0
  7  8  1  0
  8  9  2  0
  9 10  1  0
 10 11  2  0
 11 12  1  0
 12 13  2  0
 13 14  1  0
  1 15  1  0
 15 16  2  0
 16 17  1  0
 17 18  2  0
 18 19  1  0
 19 20  1  0
 20 21  1  0
 21 22  1  1
 21 23  1  0
 23 24  1  0
 25 24  1  6
 21 26  1  0
 26 27  1  0
 27 28  1  0
 13  4  1  0
 25 15  1  0
 12  7  1  0
 25 18  1  0
M  END
>  <AAScore>  (1) 
6666.064134571723

>  <RootName>  (1) 
./4ZLY/04_DeltaGEst/trajectory_05/rank_00/lead_0454

$$$$
