confid_1
     RDKit          3D

 28 32  0  0  0  0  0  0  0  0999 V2000
   24.5500   26.3900   36.2500 N   0  0  0  0  0  0  0  0  0  0  0  0
   25.6000   26.1300   35.4000 C   0  0  0  0  0  0  0  0  0  0  0  0
   25.4300   25.4300   34.4200 O   0  0  0  0  0  0  0  0  0  0  0  0
   26.9800   26.6300   35.7100 C   0  0  0  0  0  0  0  0  0  0  0  0
   27.3200   26.8200   36.9800 N   0  0  0  0  0  0  0  0  0  0  0  0
   28.4700   27.4000   37.3100 N   0  0  0  0  0  0  0  0  0  0  0  0
   29.4000   27.6300   36.3700 C   0  0  0  0  0  0  0  0  0  0  0  0
   30.6600   28.0500   36.8000 C   0  0  0  0  0  0  0  0  0  0  0  0
   31.5700   28.3600   35.7800 C   0  0  0  0  0  0  0  0  0  0  0  0
   31.3700   28.1000   34.4300 C   0  0  0  0  0  0  0  0  0  0  0  0
   30.1200   27.5900   34.0500 C   0  0  0  0  0  0  0  0  0  0  0  0
   29.1500   27.3400   35.0300 C   0  0  0  0  0  0  0  0  0  0  0  0
   27.8800   26.8900   34.6600 C   0  0  0  0  0  0  0  0  0  0  0  0
   27.4800   26.6100   33.3700 N   0  0  0  0  0  0  0  0  0  0  0  0
   23.3187   25.6480   36.2784 C   0  0  0  0  0  0  0  0  0  0  0  0
   22.2828   26.1876   36.8632 N   0  0  0  0  0  0  0  0  0  0  0  0
   21.0105   25.5488   37.0312 C   0  0  0  0  0  0  0  0  0  0  0  0
   20.3452   25.0710   35.9860 C   0  0  0  0  0  0  0  0  0  0  0  0
   19.1898   24.1636   35.6888 C   0  0  0  0  0  0  0  0  0  0  0  0
   19.3845   24.1579   34.3091 O   0  0  0  0  0  0  0  0  0  0  0  0
   20.4281   25.0626   34.4836 C   0  0  2  0  0  0  0  0  0  0  0  0
   21.7598   24.5640   33.8864 C   0  0  0  0  0  0  0  0  0  0  0  0
   22.5934   23.7350   34.8333 C   0  0  0  0  0  0  0  0  0  0  0  0
   23.2964   24.2250   35.8464 C   0  0  0  0  0  0  0  0  0  0  0  0
   24.0315   23.1367   36.5607 C   0  0  0  0  0  0  0  0  0  0  0  0
   23.6082   21.8600   35.8159 C   0  0  0  0  0  0  0  0  0  0  0  0
   22.7252   22.3235   34.7562 N   0  0  0  0  0  0  0  0  0  0  0  0
   22.0335   21.4500   33.8154 C   0  0  0  0  0  0  0  0  0  0  0  0
  1  2  1  0
  2  3  2  0
  2  4  1  0
  4  5  2  0
  5  6  1  0
  6  7  2  0
  7  8  1  0
  8  9  2  0
  9 10  1  0
 10 11  2  0
 11 12  1  0
 12 13  2  0
 13 14  1  0
  1 15  1  0
 15 16  2  0
 16 17  1  0
 17 18  2  0
 18 19  1  0
 19 20  1  0
 20 21  1  0
 21 22  1  1
 22 23  1  0
 23 24  2  0
 24 25  1  0
 25 26  1  0
 26 27  1  0
 27 28  1  0
 13  4  1  0
 24 15  1  0
 12  7  1  0
 21 18  1  0
 27 23  1  0
M  END
>  <AAScore>  (1) 
2593.931310988596

>  <RootName>  (1) 
./4ZLY/04_DeltaGEst/trajectory_01/rank_00/lead_0220

$$$$
