confid_16
     RDKit          3D

 28 31  0  0  0  0  0  0  0  0999 V2000
   25.3300   26.2600   34.7600 N   0  0  0  0  0  0  0  0  0  0  0  0
   26.1200   25.9200   33.6900 C   0  0  0  0  0  0  0  0  0  0  0  0
   25.6300   25.1100   32.9400 O   0  0  0  0  0  0  0  0  0  0  0  0
   27.5200   26.3800   33.4600 C   0  0  0  0  0  0  0  0  0  0  0  0
   28.1600   26.6300   34.6100 N   0  0  0  0  0  0  0  0  0  0  0  0
   29.4800   26.8500   34.5700 N   0  0  0  0  0  0  0  0  0  0  0  0
   30.1900   26.7800   33.4400 C   0  0  0  0  0  0  0  0  0  0  0  0
   31.5600   27.0500   33.5000 C   0  0  0  0  0  0  0  0  0  0  0  0
   32.2700   27.2400   32.3100 C   0  0  0  0  0  0  0  0  0  0  0  0
   31.6100   27.2500   31.0800 C   0  0  0  0  0  0  0  0  0  0  0  0
   30.2700   26.8700   31.0600 C   0  0  0  0  0  0  0  0  0  0  0  0
   29.5100   26.6900   32.2300 C   0  0  0  0  0  0  0  0  0  0  0  0
   28.1400   26.4100   32.2000 C   0  0  0  0  0  0  0  0  0  0  0  0
   27.4300   26.1300   31.0500 N   0  0  0  0  0  0  0  0  0  0  0  0
   23.9405   25.9244   34.9463 C   0  0  0  0  0  0  0  0  0  0  0  0
   23.3206   26.2822   36.1023 N   0  0  0  0  0  0  0  0  0  0  0  0
   22.0099   26.0005   36.3158 C   0  0  0  0  0  0  0  0  0  0  0  0
   21.2657   25.3412   35.3325 C   0  0  0  0  0  0  0  0  0  0  0  0
   19.8298   24.9543   35.5847 C   0  0  0  0  0  0  0  0  0  0  0  0
   19.0761   24.7477   34.3304 N   0  0  0  0  0  0  0  0  0  0  0  0
   19.7867   23.7878   33.4546 C   0  0  0  0  0  0  0  0  0  0  0  0
   21.1831   24.2794   33.0319 C   0  0  0  0  0  0  0  0  0  0  0  0
   21.9209   24.9592   34.1515 C   0  0  0  0  0  0  0  0  0  0  0  0
   23.2323   25.2735   33.9823 N   0  0  0  0  0  0  0  0  0  0  0  0
   18.7324   26.0316   33.6701 C   0  0  0  0  0  0  0  0  0  0  0  0
   17.5578   25.8799   32.6778 C   0  0  0  0  0  0  0  0  0  0  0  0
   16.3160   25.2977   33.3673 C   0  0  0  0  0  0  0  0  0  0  0  0
   17.2219   27.2365   32.0455 C   0  0  0  0  0  0  0  0  0  0  0  0
  1  2  1  0
  2  3  2  0
  2  4  1  0
  4  5  2  0
  5  6  1  0
  6  7  2  0
  7  8  1  0
  8  9  2  0
  9 10  1  0
 10 11  2  0
 11 12  1  0
 12 13  2  0
 13 14  1  0
  1 15  1  0
 15 16  2  0
 16 17  1  0
 17 18  2  0
 18 19  1  0
 19 20  1  0
 20 21  1  0
 21 22  1  0
 22 23  1  0
 23 24  2  0
 20 25  1  0
 25 26  1  0
 26 27  1  0
 26 28  1  0
 13  4  1  0
 24 15  1  0
 12  7  1  0
 23 18  1  0
M  END
>  <AAScore>  (1) 
2930.978579499296

>  <RootName>  (1) 
./4ZLY/04_DeltaGEst/trajectory_03/rank_00/lead_0293

$$$$
