confid_8
     RDKit          3D

 28 31  0  0  0  0  0  0  0  0999 V2000
   24.5700   26.8800   35.5900 N   0  0  0  0  0  0  0  0  0  0  0  0
   25.5000   26.4000   34.6900 C   0  0  0  0  0  0  0  0  0  0  0  0
   25.1700   25.5200   33.9100 O   0  0  0  0  0  0  0  0  0  0  0  0
   26.8400   27.0200   34.7400 C   0  0  0  0  0  0  0  0  0  0  0  0
   27.3800   27.2800   35.9400 N   0  0  0  0  0  0  0  0  0  0  0  0
   28.6200   27.7400   36.0300 N   0  0  0  0  0  0  0  0  0  0  0  0
   29.3800   28.0000   34.9600 C   0  0  0  0  0  0  0  0  0  0  0  0
   30.6700   28.5000   35.1300 C   0  0  0  0  0  0  0  0  0  0  0  0
   31.5400   28.6100   34.0300 C   0  0  0  0  0  0  0  0  0  0  0  0
   31.0900   28.2200   32.7700 C   0  0  0  0  0  0  0  0  0  0  0  0
   29.8000   27.7000   32.6000 C   0  0  0  0  0  0  0  0  0  0  0  0
   28.9600   27.5500   33.7100 C   0  0  0  0  0  0  0  0  0  0  0  0
   27.6600   27.0300   33.5900 C   0  0  0  0  0  0  0  0  0  0  0  0
   27.1600   26.7400   32.3400 N   0  0  0  0  0  0  0  0  0  0  0  0
   23.1583   26.6261   35.4985 C   0  0  0  0  0  0  0  0  0  0  0  0
   22.5791   26.2456   34.4041 N   0  0  0  0  0  0  0  0  0  0  0  0
   21.1870   26.1783   34.6695 C   0  0  0  0  0  0  0  0  0  0  0  0
   20.9208   26.5193   35.9207 C   0  0  0  0  0  0  0  0  0  0  0  0
   19.5494   26.5793   36.5261 C   0  0  0  0  0  0  0  0  0  0  0  0
   19.5933   26.0400   37.8926 N   0  0  0  0  0  0  0  0  0  0  0  0
   20.2651   26.8605   38.9110 C   0  0  0  0  0  0  0  0  0  0  0  0
   21.7297   26.4270   39.1176 C   0  0  0  0  0  0  0  0  0  0  0  0
   22.4677   25.9818   37.8357 C   0  0  0  0  0  0  0  0  0  0  0  0
   22.1964   26.8912   36.6186 C   0  0  1  0  0  0  0  0  0  0  0  0
   19.2563   24.6523   38.1366 C   0  0  0  0  0  0  0  0  0  0  0  0
   18.9409   23.9083   37.1670 O   0  0  0  0  0  0  0  0  0  0  0  0
   19.2830   24.0966   39.4620 N   0  0  0  0  0  0  0  0  0  0  0  0
   19.0824   22.6716   39.6939 C   0  0  0  0  0  0  0  0  0  0  0  0
  1  2  1  0
  2  3  2  0
  2  4  1  0
  4  5  2  0
  5  6  1  0
  6  7  2  0
  7  8  1  0
  8  9  2  0
  9 10  1  0
 10 11  2  0
 11 12  1  0
 12 13  2  0
 13 14  1  0
  1 15  1  0
 15 16  2  0
 16 17  1  0
 17 18  2  0
 18 19  1  0
 19 20  1  0
 20 21  1  0
 21 22  1  0
 22 23  1  0
 24 23  1  1
 20 25  1  0
 25 26  2  0
 25 27  1  0
 27 28  1  0
 13  4  1  0
 24 15  1  0
 12  7  1  0
 24 18  1  0
M  END
>  <AAScore>  (1) 
429.1669023574968

>  <RootName>  (1) 
./4ZLY/04_DeltaGEst/trajectory_05/rank_00/lead_0121

$$$$
