confid_0
     RDKit          3D

 30 34  0  0  0  0  0  0  0  0999 V2000
   24.5700   26.8800   35.5900 N   0  0  0  0  0  0  0  0  0  0  0  0
   25.5000   26.4000   34.6900 C   0  0  0  0  0  0  0  0  0  0  0  0
   25.1700   25.5200   33.9100 O   0  0  0  0  0  0  0  0  0  0  0  0
   26.8400   27.0200   34.7400 C   0  0  0  0  0  0  0  0  0  0  0  0
   27.3800   27.2800   35.9400 N   0  0  0  0  0  0  0  0  0  0  0  0
   28.6200   27.7400   36.0300 N   0  0  0  0  0  0  0  0  0  0  0  0
   29.3800   28.0000   34.9600 C   0  0  0  0  0  0  0  0  0  0  0  0
   30.6700   28.5000   35.1300 C   0  0  0  0  0  0  0  0  0  0  0  0
   31.5400   28.6100   34.0300 C   0  0  0  0  0  0  0  0  0  0  0  0
   31.0900   28.2200   32.7700 C   0  0  0  0  0  0  0  0  0  0  0  0
   29.8000   27.7000   32.6000 C   0  0  0  0  0  0  0  0  0  0  0  0
   28.9600   27.5500   33.7100 C   0  0  0  0  0  0  0  0  0  0  0  0
   27.6600   27.0300   33.5900 C   0  0  0  0  0  0  0  0  0  0  0  0
   27.1600   26.7400   32.3400 N   0  0  0  0  0  0  0  0  0  0  0  0
   23.3351   26.2188   35.9408 C   0  0  0  0  0  0  0  0  0  0  0  0
   23.1850   24.9607   35.6045 N   0  0  0  0  0  0  0  0  0  0  0  0
   22.1140   24.0780   35.9444 C   0  0  0  0  0  0  0  0  0  0  0  0
   21.8686   23.7640   37.2206 C   0  0  0  0  0  0  0  0  0  0  0  0
   22.5372   24.5428   38.3016 C   0  0  0  0  0  0  0  0  0  0  0  0
   21.5481   25.5736   38.5294 N   0  0  0  0  0  0  0  0  0  0  0  0
   20.3129   24.8526   38.4204 C   0  0  0  0  0  0  0  0  0  0  0  0
   19.2227   25.2773   38.8869 O   0  0  0  0  0  0  0  0  0  0  0  0
   20.4499   23.5829   37.6568 C   0  0  0  0  0  0  0  0  0  0  0  0
   21.6027   26.8471   37.8516 C   0  0  0  0  0  0  0  0  0  0  0  0
   20.8229   27.8783   38.4055 C   0  0  0  0  0  0  0  0  0  0  0  0
   20.6319   29.0911   37.7394 C   0  0  0  0  0  0  0  0  0  0  0  0
   19.8038   30.1731   38.3684 C   0  0  0  0  0  0  0  0  0  0  0  0
   21.2480   29.2981   36.5062 C   0  0  0  0  0  0  0  0  0  0  0  0
   22.0486   28.3072   35.9448 C   0  0  0  0  0  0  0  0  0  0  0  0
   22.2688   27.0730   36.5910 C   0  0  0  0  0  0  0  0  0  0  0  0
  1  2  1  0
  2  3  2  0
  2  4  1  0
  4  5  2  0
  5  6  1  0
  6  7  2  0
  7  8  1  0
  8  9  2  0
  9 10  1  0
 10 11  2  0
 11 12  1  0
 12 13  2  0
 13 14  1  0
  1 15  1  0
 15 16  2  0
 16 17  1  0
 17 18  2  0
 18 19  1  0
 19 20  1  0
 20 21  1  0
 21 22  2  0
 21 23  1  0
 20 24  1  0
 24 25  2  0
 25 26  1  0
 26 27  1  0
 26 28  2  0
 28 29  1  0
 29 30  2  0
 13  4  1  0
 30 15  1  0
 12  7  1  0
 23 18  1  0
 30 24  1  0
M  END
>  <AAScore>  (1) 
127678.32842220864

>  <RootName>  (1) 
./4ZLY/04_DeltaGEst/trajectory_05/rank_00/lead_0274

$$$$
