confid_7
     RDKit          3D

 30 34  0  0  0  0  0  0  0  0999 V2000
   24.5500   26.3900   36.2500 N   0  0  0  0  0  0  0  0  0  0  0  0
   25.6000   26.1300   35.4000 C   0  0  0  0  0  0  0  0  0  0  0  0
   25.4300   25.4300   34.4200 O   0  0  0  0  0  0  0  0  0  0  0  0
   26.9800   26.6300   35.7100 C   0  0  0  0  0  0  0  0  0  0  0  0
   27.3200   26.8200   36.9800 N   0  0  0  0  0  0  0  0  0  0  0  0
   28.4700   27.4000   37.3100 N   0  0  0  0  0  0  0  0  0  0  0  0
   29.4000   27.6300   36.3700 C   0  0  0  0  0  0  0  0  0  0  0  0
   30.6600   28.0500   36.8000 C   0  0  0  0  0  0  0  0  0  0  0  0
   31.5700   28.3600   35.7800 C   0  0  0  0  0  0  0  0  0  0  0  0
   31.3700   28.1000   34.4300 C   0  0  0  0  0  0  0  0  0  0  0  0
   30.1200   27.5900   34.0500 C   0  0  0  0  0  0  0  0  0  0  0  0
   29.1500   27.3400   35.0300 C   0  0  0  0  0  0  0  0  0  0  0  0
   27.8800   26.8900   34.6600 C   0  0  0  0  0  0  0  0  0  0  0  0
   27.4800   26.6100   33.3700 N   0  0  0  0  0  0  0  0  0  0  0  0
   23.3086   25.6688   36.2173 C   0  0  0  0  0  0  0  0  0  0  0  0
   22.2149   26.2924   36.5617 N   0  0  0  0  0  0  0  0  0  0  0  0
   20.9197   25.6839   36.6100 C   0  0  0  0  0  0  0  0  0  0  0  0
   20.4146   25.0983   35.5307 C   0  0  0  0  0  0  0  0  0  0  0  0
   19.3341   24.1323   35.1496 C   0  0  0  0  0  0  0  0  0  0  0  0
   19.7382   24.0112   33.8195 O   0  0  0  0  0  0  0  0  0  0  0  0
   20.7302   24.9529   34.0672 C   0  0  2  0  0  0  0  0  0  0  0  0
   22.1485   24.4332   33.7509 C   0  0  0  0  0  0  0  0  0  0  0  0
   22.7559   23.5937   34.8577 C   0  0  0  0  0  0  0  0  0  0  0  0
   23.3228   24.1895   36.0143 C   0  0  0  0  0  0  0  0  0  0  0  0
   23.8708   23.3757   37.0285 C   0  0  0  0  0  0  0  0  0  0  0  0
   23.8457   21.9746   36.8827 C   0  0  0  0  0  0  0  0  0  0  0  0
   23.2640   21.3932   35.7557 C   0  0  0  0  0  0  0  0  0  0  0  0
   22.7210   22.1930   34.7503 C   0  0  0  0  0  0  0  0  0  0  0  0
   24.4102   23.9886   38.1716 O   0  0  0  0  0  0  0  0  0  0  0  0
   24.8968   23.2872   39.3127 C   0  0  0  0  0  0  0  0  0  0  0  0
  1  2  1  0
  2  3  2  0
  2  4  1  0
  4  5  2  0
  5  6  1  0
  6  7  2  0
  7  8  1  0
  8  9  2  0
  9 10  1  0
 10 11  2  0
 11 12  1  0
 12 13  2  0
 13 14  1  0
  1 15  1  0
 15 16  2  0
 16 17  1  0
 17 18  2  0
 18 19  1  0
 19 20  1  0
 20 21  1  0
 21 22  1  1
 22 23  1  0
 23 24  2  0
 24 25  1  0
 25 26  2  0
 26 27  1  0
 27 28  2  0
 25 29  1  0
 29 30  1  0
 13  4  1  0
 24 15  1  0
 12  7  1  0
 21 18  1  0
 28 23  1  0
M  END
>  <AAScore>  (1) 
3406.184331647253

>  <RootName>  (1) 
./4ZLY/04_DeltaGEst/trajectory_01/rank_00/lead_0462

$$$$
