confid_3
     RDKit          3D

 28 31  0  0  0  0  0  0  0  0999 V2000
   24.5500   26.3900   36.2500 N   0  0  0  0  0  0  0  0  0  0  0  0
   25.6000   26.1300   35.4000 C   0  0  0  0  0  0  0  0  0  0  0  0
   25.4300   25.4300   34.4200 O   0  0  0  0  0  0  0  0  0  0  0  0
   26.9800   26.6300   35.7100 C   0  0  0  0  0  0  0  0  0  0  0  0
   27.3200   26.8200   36.9800 N   0  0  0  0  0  0  0  0  0  0  0  0
   28.4700   27.4000   37.3100 N   0  0  0  0  0  0  0  0  0  0  0  0
   29.4000   27.6300   36.3700 C   0  0  0  0  0  0  0  0  0  0  0  0
   30.6600   28.0500   36.8000 C   0  0  0  0  0  0  0  0  0  0  0  0
   31.5700   28.3600   35.7800 C   0  0  0  0  0  0  0  0  0  0  0  0
   31.3700   28.1000   34.4300 C   0  0  0  0  0  0  0  0  0  0  0  0
   30.1200   27.5900   34.0500 C   0  0  0  0  0  0  0  0  0  0  0  0
   29.1500   27.3400   35.0300 C   0  0  0  0  0  0  0  0  0  0  0  0
   27.8800   26.8900   34.6600 C   0  0  0  0  0  0  0  0  0  0  0  0
   27.4800   26.6100   33.3700 N   0  0  0  0  0  0  0  0  0  0  0  0
   31.0000   28.3120   38.2241 C   0  0  0  0  0  0  0  0  0  0  0  0
   32.2905   28.0306   38.7193 C   0  0  0  0  0  0  0  0  0  0  0  0
   32.5549   28.3062   40.0591 C   0  0  0  0  0  0  0  0  0  0  0  0
   33.8213   28.0911   40.7947 C   0  0  0  0  0  0  0  0  0  0  0  0
   33.5120   28.5548   42.1517 N   0  0  0  0  0  0  0  0  0  0  0  0
   34.4779   28.5283   43.2232 C   0  0  0  0  0  0  0  0  0  0  0  0
   34.1647   28.9379   44.3728 O   0  0  0  0  0  0  0  0  0  0  0  0
   35.8666   28.0163   42.9936 C   0  0  0  0  0  0  0  0  0  0  0  0
   32.1201   29.0365   42.2664 C   0  0  0  0  0  0  0  0  0  0  0  0
   31.3214   28.1812   43.2647 C   0  0  0  0  0  0  0  0  0  0  0  0
   32.0820   30.5290   42.6368 C   0  0  0  0  0  0  0  0  0  0  0  0
   31.5934   28.8366   40.8799 C   0  0  0  0  0  0  0  0  0  0  0  0
   30.3204   29.1102   40.3767 C   0  0  0  0  0  0  0  0  0  0  0  0
   30.0591   28.8424   39.0662 N   0  0  0  0  0  0  0  0  0  0  0  0
  1  2  1  0
  2  3  2  0
  2  4  1  0
  4  5  2  0
  5  6  1  0
  6  7  2  0
  7  8  1  0
  8  9  2  0
  9 10  1  0
 10 11  2  0
 11 12  1  0
 12 13  2  0
 13 14  1  0
  8 15  1  0
 15 16  2  0
 16 17  1  0
 17 18  1  0
 18 19  1  0
 19 20  1  0
 20 21  2  0
 20 22  1  0
 19 23  1  0
 23 24  1  0
 23 25  1  0
 23 26  1  0
 26 27  1  0
 27 28  2  0
 13  4  1  0
 28 15  1  0
 12  7  1  0
 26 17  2  0
M  END
>  <AAScore>  (1) 
2050.7834772487404

>  <RootName>  (1) 
./4ZLY/04_DeltaGEst/trajectory_01/rank_01/lead_0057

$$$$
