confid_0
     RDKit          3D

 29 33  0  0  0  0  0  0  0  0999 V2000
   24.4800   26.1000   36.1300 N   0  0  0  0  0  0  0  0  0  0  0  0
   25.2500   26.2500   34.9900 C   0  0  0  0  0  0  0  0  0  0  0  0
   24.7400   25.7600   33.9900 O   0  0  0  0  0  0  0  0  0  0  0  0
   26.5900   26.8900   34.9600 C   0  0  0  0  0  0  0  0  0  0  0  0
   27.0600   27.2400   36.1600 N   0  0  0  0  0  0  0  0  0  0  0  0
   28.3000   27.7100   36.2400 N   0  0  0  0  0  0  0  0  0  0  0  0
   29.0500   27.9600   35.1500 C   0  0  0  0  0  0  0  0  0  0  0  0
   30.3400   28.4900   35.2600 C   0  0  0  0  0  0  0  0  0  0  0  0
   31.1100   28.8200   34.1400 C   0  0  0  0  0  0  0  0  0  0  0  0
   30.5200   28.6700   32.8800 C   0  0  0  0  0  0  0  0  0  0  0  0
   29.2900   28.0200   32.7700 C   0  0  0  0  0  0  0  0  0  0  0  0
   28.5200   27.7100   33.8900 C   0  0  0  0  0  0  0  0  0  0  0  0
   27.2700   27.0800   33.7600 C   0  0  0  0  0  0  0  0  0  0  0  0
   26.7500   26.8800   32.4900 N   0  0  0  0  0  0  0  0  0  0  0  0
   23.0467   26.2336   36.1937 C   0  0  0  0  0  0  0  0  0  0  0  0
   22.4446   25.8915   37.3062 N   0  0  0  0  0  0  0  0  0  0  0  0
   21.0326   26.0309   37.5417 C   0  0  0  0  0  0  0  0  0  0  0  0
   20.2742   26.5950   36.6100 C   0  0  0  0  0  0  0  0  0  0  0  0
   18.8191   26.8899   36.6248 C   0  0  1  0  0  0  0  0  0  0  0  0
   18.6410   27.6200   35.2663 C   0  0  0  0  0  0  0  0  0  0  0  0
   19.9525   27.5988   34.6126 N   0  0  0  0  0  0  0  0  0  0  0  0
   20.8297   27.0523   35.3796 C   0  0  0  0  0  0  0  0  0  0  0  0
   22.2620   26.8153   35.0163 C   0  0  0  0  0  0  0  0  0  0  0  0
   18.0023   25.6288   36.7076 C   0  0  0  0  0  0  0  0  0  0  0  0
   18.1099   24.5250   35.8846 C   0  0  0  0  0  0  0  0  0  0  0  0
   17.1983   23.6286   36.2916 N   0  0  0  0  0  0  0  0  0  0  0  0
   16.5775   24.1831   37.3508 C   0  0  0  0  0  0  0  0  0  0  0  0
   17.0406   25.4198   37.6317 N   0  0  0  0  0  0  0  0  0  0  0  0
   17.0095   22.2794   35.7749 C   0  0  0  0  0  0  0  0  0  0  0  0
  1  2  1  0
  2  3  2  0
  2  4  1  0
  4  5  2  0
  5  6  1  0
  6  7  2  0
  7  8  1  0
  8  9  2  0
  9 10  1  0
 10 11  2  0
 11 12  1  0
 12 13  2  0
 13 14  1  0
  1 15  1  0
 15 16  2  0
 16 17  1  0
 17 18  2  0
 18 19  1  0
 19 20  1  0
 20 21  1  0
 21 22  2  0
 22 23  1  0
 19 24  1  6
 24 25  2  0
 25 26  1  0
 26 27  1  0
 27 28  2  0
 26 29  1  0
 13  4  1  0
 23 15  1  0
 28 24  1  0
 12  7  1  0
 22 18  1  0
M  END
>  <AAScore>  (1) 
1587.732651864464

>  <RootName>  (1) 
./4ZLY/04_DeltaGEst/trajectory_00/rank_01/lead_0463

$$$$
