confid_8
     RDKit          3D

 27 30  0  0  0  0  0  0  0  0999 V2000
   24.2000   26.2400   35.6900 N   0  0  0  0  0  0  0  0  0  0  0  0
   24.8500   26.2800   34.4800 C   0  0  0  0  0  0  0  0  0  0  0  0
   24.3100   25.7400   33.5400 O   0  0  0  0  0  0  0  0  0  0  0  0
   26.1800   26.9700   34.4700 C   0  0  0  0  0  0  0  0  0  0  0  0
   26.6500   27.6000   35.5500 N   0  0  0  0  0  0  0  0  0  0  0  0
   27.7900   28.2700   35.6200 N   0  0  0  0  0  0  0  0  0  0  0  0
   28.5400   28.3000   34.5100 C   0  0  0  0  0  0  0  0  0  0  0  0
   29.7700   28.9400   34.5600 C   0  0  0  0  0  0  0  0  0  0  0  0
   30.7000   28.8900   33.5000 C   0  0  0  0  0  0  0  0  0  0  0  0
   30.3700   28.1400   32.3700 C   0  0  0  0  0  0  0  0  0  0  0  0
   29.1200   27.5200   32.2800 C   0  0  0  0  0  0  0  0  0  0  0  0
   28.2100   27.6100   33.3300 C   0  0  0  0  0  0  0  0  0  0  0  0
   26.9700   26.9700   33.3100 C   0  0  0  0  0  0  0  0  0  0  0  0
   26.5300   26.2400   32.2200 N   0  0  0  0  0  0  0  0  0  0  0  0
   23.2068   25.2644   36.0515 C   0  0  0  0  0  0  0  0  0  0  0  0
   22.9904   24.1621   35.2783 N   0  0  0  0  0  0  0  0  0  0  0  0
   22.0541   23.2592   35.6550 C   0  0  0  0  0  0  0  0  0  0  0  0
   21.7135   22.0051   34.9452 C   0  0  0  0  0  0  0  0  0  0  0  0
   20.6413   21.3738   35.8606 C   0  0  0  0  0  0  0  0  0  0  0  0
   20.3872   22.3371   36.9402 N   0  0  0  0  0  0  0  0  0  0  0  0
   19.0842   22.3892   37.6107 C   0  0  0  0  0  0  0  0  0  0  0  0
   18.1374   23.3446   36.8886 C   0  0  0  0  0  0  0  0  0  0  0  0
   21.3070   23.4194   36.7848 C   0  0  0  0  0  0  0  0  0  0  0  0
   21.5643   24.5206   37.6255 C   0  0  0  0  0  0  0  0  0  0  0  0
   22.5087   25.4196   37.2150 N   0  0  0  0  0  0  0  0  0  0  0  0
   20.8859   24.7050   38.9614 C   0  0  0  0  0  0  0  0  0  0  0  0
   21.4967   25.8288   39.7998 C   0  0  0  0  0  0  0  0  0  0  0  0
  1  2  1  0
  2  3  2  0
  2  4  1  0
  4  5  2  0
  5  6  1  0
  6  7  2  0
  7  8  1  0
  8  9  2  0
  9 10  1  0
 10 11  2  0
 11 12  1  0
 12 13  2  0
 13 14  1  0
  1 15  1  0
 15 16  2  0
 16 17  1  0
 17 18  1  0
 18 19  1  0
 19 20  1  0
 20 21  1  0
 21 22  1  0
 20 23  1  0
 23 24  1  0
 24 25  2  0
 24 26  1  0
 26 27  1  0
 13  4  1  0
 25 15  1  0
 12  7  1  0
 23 17  2  0
M  END
>  <AAScore>  (1) 
655.1036619278756

>  <RootName>  (1) 
./4ZLY/04_DeltaGEst/trajectory_04/rank_00/lead_0352

$$$$
