confid_1
     RDKit          3D

 28 32  0  0  0  0  0  0  0  0999 V2000
   24.5500   26.3900   36.2500 N   0  0  0  0  0  0  0  0  0  0  0  0
   25.6000   26.1300   35.4000 C   0  0  0  0  0  0  0  0  0  0  0  0
   25.4300   25.4300   34.4200 O   0  0  0  0  0  0  0  0  0  0  0  0
   26.9800   26.6300   35.7100 C   0  0  0  0  0  0  0  0  0  0  0  0
   27.3200   26.8200   36.9800 N   0  0  0  0  0  0  0  0  0  0  0  0
   28.4700   27.4000   37.3100 N   0  0  0  0  0  0  0  0  0  0  0  0
   29.4000   27.6300   36.3700 C   0  0  0  0  0  0  0  0  0  0  0  0
   30.6600   28.0500   36.8000 C   0  0  0  0  0  0  0  0  0  0  0  0
   31.5700   28.3600   35.7800 C   0  0  0  0  0  0  0  0  0  0  0  0
   31.3700   28.1000   34.4300 C   0  0  0  0  0  0  0  0  0  0  0  0
   30.1200   27.5900   34.0500 C   0  0  0  0  0  0  0  0  0  0  0  0
   29.1500   27.3400   35.0300 C   0  0  0  0  0  0  0  0  0  0  0  0
   27.8800   26.8900   34.6600 C   0  0  0  0  0  0  0  0  0  0  0  0
   27.4800   26.6100   33.3700 N   0  0  0  0  0  0  0  0  0  0  0  0
   23.3450   25.6090   36.2808 C   0  0  0  0  0  0  0  0  0  0  0  0
   22.2380   26.1827   36.6676 N   0  0  0  0  0  0  0  0  0  0  0  0
   20.9694   25.5242   36.7772 C   0  0  0  0  0  0  0  0  0  0  0  0
   20.4551   24.8702   35.7415 C   0  0  0  0  0  0  0  0  0  0  0  0
   19.3246   23.9403   35.4196 C   0  0  0  0  0  0  0  0  0  0  0  0
   19.7034   23.7359   34.0961 O   0  0  0  0  0  0  0  0  0  0  0  0
   20.7431   24.6427   34.2833 C   0  0  2  0  0  0  0  0  0  0  0  0
   22.1255   24.0438   33.9425 C   0  0  0  0  0  0  0  0  0  0  0  0
   22.8639   23.4473   35.1124 C   0  0  0  0  0  0  0  0  0  0  0  0
   23.4228   24.1364   36.0902 C   0  0  0  0  0  0  0  0  0  0  0  0
   24.2207   23.2452   36.9676 C   0  0  0  0  0  0  0  0  0  0  0  0
   23.9873   21.8719   36.4793 N   0  0  0  0  0  0  0  0  0  0  0  0
   23.2278   21.0816   37.4638 C   0  0  0  0  0  0  0  0  0  0  0  0
   23.2307   22.0142   35.2166 C   0  0  0  0  0  0  0  0  0  0  0  0
  1  2  1  0
  2  3  2  0
  2  4  1  0
  4  5  2  0
  5  6  1  0
  6  7  2  0
  7  8  1  0
  8  9  2  0
  9 10  1  0
 10 11  2  0
 11 12  1  0
 12 13  2  0
 13 14  1  0
  1 15  1  0
 15 16  2  0
 16 17  1  0
 17 18  2  0
 18 19  1  0
 19 20  1  0
 20 21  1  0
 21 22  1  1
 22 23  1  0
 23 24  2  0
 24 25  1  0
 25 26  1  0
 26 27  1  0
 26 28  1  0
 13  4  1  0
 24 15  1  0
 12  7  1  0
 21 18  1  0
 28 23  1  0
M  END
>  <AAScore>  (1) 
4164.513122966328

>  <RootName>  (1) 
./4ZLY/04_DeltaGEst/trajectory_01/rank_00/lead_0194

$$$$
