confid_3
     RDKit          3D

 29 32  0  0  0  0  0  0  0  0999 V2000
   24.2000   26.2400   35.6900 N   0  0  0  0  0  0  0  0  0  0  0  0
   24.8500   26.2800   34.4800 C   0  0  0  0  0  0  0  0  0  0  0  0
   24.3100   25.7400   33.5400 O   0  0  0  0  0  0  0  0  0  0  0  0
   26.1800   26.9700   34.4700 C   0  0  0  0  0  0  0  0  0  0  0  0
   26.6500   27.6000   35.5500 N   0  0  0  0  0  0  0  0  0  0  0  0
   27.7900   28.2700   35.6200 N   0  0  0  0  0  0  0  0  0  0  0  0
   28.5400   28.3000   34.5100 C   0  0  0  0  0  0  0  0  0  0  0  0
   29.7700   28.9400   34.5600 C   0  0  0  0  0  0  0  0  0  0  0  0
   30.7000   28.8900   33.5000 C   0  0  0  0  0  0  0  0  0  0  0  0
   30.3700   28.1400   32.3700 C   0  0  0  0  0  0  0  0  0  0  0  0
   29.1200   27.5200   32.2800 C   0  0  0  0  0  0  0  0  0  0  0  0
   28.2100   27.6100   33.3300 C   0  0  0  0  0  0  0  0  0  0  0  0
   26.9700   26.9700   33.3100 C   0  0  0  0  0  0  0  0  0  0  0  0
   26.5300   26.2400   32.2200 N   0  0  0  0  0  0  0  0  0  0  0  0
   23.0260   25.4373   35.9265 C   0  0  0  0  0  0  0  0  0  0  0  0
   22.9800   24.1864   35.4107 N   0  0  0  0  0  0  0  0  0  0  0  0
   21.9561   23.3394   35.6427 C   0  0  0  0  0  0  0  0  0  0  0  0
   20.8703   23.7146   36.4451 C   0  0  0  0  0  0  0  0  0  0  0  0
   19.9067   22.5762   36.7832 C   0  0  0  0  0  0  0  0  0  0  0  0
   18.5499   22.9917   37.1693 N   0  0  0  0  0  0  0  0  0  0  0  0
   17.7591   21.8315   37.6118 C   0  0  0  0  0  0  0  0  0  0  0  0
   17.8546   23.7503   36.1121 C   0  0  0  0  0  0  0  0  0  0  0  0
   17.4080   25.0920   36.6986 C   0  0  0  0  0  0  0  0  0  0  0  0
   18.5188   26.0483   36.8911 N   0  0  0  0  0  0  0  0  0  0  0  0
   18.9176   26.7119   35.6352 C   0  0  0  0  0  0  0  0  0  0  0  0
   19.6298   25.5624   37.7576 C   0  0  0  0  0  0  0  0  0  0  0  0
   20.8453   25.0411   36.9849 C   0  0  0  0  0  0  0  0  0  0  0  0
   21.9527   25.9129   36.7174 C   0  0  0  0  0  0  0  0  0  0  0  0
   22.0570   27.3094   37.3073 C   0  0  0  0  0  0  0  0  0  0  0  0
  1  2  1  0
  2  3  2  0
  2  4  1  0
  4  5  2  0
  5  6  1  0
  6  7  2  0
  7  8  1  0
  8  9  2  0
  9 10  1  0
 10 11  2  0
 11 12  1  0
 12 13  2  0
 13 14  1  0
  1 15  1  0
 15 16  2  0
 16 17  1  0
 17 18  2  0
 18 19  1  0
 19 20  1  0
 20 21  1  0
 20 22  1  0
 22 23  1  0
 23 24  1  0
 24 25  1  0
 24 26  1  0
 26 27  1  0
 27 28  2  0
 28 29  1  0
 13  4  1  0
 28 15  1  0
 12  7  1  0
 27 18  1  0
M  END
>  <AAScore>  (1) 
2326.977590694866

>  <RootName>  (1) 
./4ZLY/04_DeltaGEst/trajectory_04/rank_00/lead_0094

$$$$
