confid_7
     RDKit          3D

 27 30  0  0  0  0  0  0  0  0999 V2000
   25.3300   26.2600   34.7600 N   0  0  0  0  0  0  0  0  0  0  0  0
   26.1200   25.9200   33.6900 C   0  0  0  0  0  0  0  0  0  0  0  0
   25.6300   25.1100   32.9400 O   0  0  0  0  0  0  0  0  0  0  0  0
   27.5200   26.3800   33.4600 C   0  0  0  0  0  0  0  0  0  0  0  0
   28.1600   26.6300   34.6100 N   0  0  0  0  0  0  0  0  0  0  0  0
   29.4800   26.8500   34.5700 N   0  0  0  0  0  0  0  0  0  0  0  0
   30.1900   26.7800   33.4400 C   0  0  0  0  0  0  0  0  0  0  0  0
   31.5600   27.0500   33.5000 C   0  0  0  0  0  0  0  0  0  0  0  0
   32.2700   27.2400   32.3100 C   0  0  0  0  0  0  0  0  0  0  0  0
   31.6100   27.2500   31.0800 C   0  0  0  0  0  0  0  0  0  0  0  0
   30.2700   26.8700   31.0600 C   0  0  0  0  0  0  0  0  0  0  0  0
   29.5100   26.6900   32.2300 C   0  0  0  0  0  0  0  0  0  0  0  0
   28.1400   26.4100   32.2000 C   0  0  0  0  0  0  0  0  0  0  0  0
   27.4300   26.1300   31.0500 N   0  0  0  0  0  0  0  0  0  0  0  0
   26.4929   27.1338   30.5306 C   0  0  0  0  0  0  0  0  0  0  0  0
   26.2589   26.9600   29.0308 C   0  0  0  0  0  0  0  0  0  0  0  0
   27.5416   26.8692   28.3299 N   0  0  0  0  0  0  0  0  0  0  0  0
   28.1262   28.0959   27.7745 C   0  0  0  0  0  0  0  0  0  0  0  0
   28.2450   25.6065   28.2118 C   0  0  0  0  0  0  0  0  0  0  0  0
   29.0056   25.3533   27.0511 C   0  0  0  0  0  0  0  0  0  0  0  0
   29.7291   24.1669   26.9058 C   0  0  0  0  0  0  0  0  0  0  0  0
   29.7020   23.2083   27.9167 C   0  0  0  0  0  0  0  0  0  0  0  0
   28.9554   23.4319   29.0715 C   0  0  0  0  0  0  0  0  0  0  0  0
   28.2316   24.6257   29.2494 C   0  0  0  0  0  0  0  0  0  0  0  0
   27.4193   24.7590   30.5220 C   0  0  0  0  0  0  0  0  0  0  0  0
   30.4973   23.9312   25.7110 C   0  0  0  0  0  0  0  0  0  0  0  0
   31.1148   23.7420   24.7507 N   0  0  0  0  0  0  0  0  0  0  0  0
  1  2  1  0
  2  3  2  0
  2  4  1  0
  4  5  2  0
  5  6  1  0
  6  7  2  0
  7  8  1  0
  8  9  2  0
  9 10  1  0
 10 11  2  0
 11 12  1  0
 12 13  2  0
 13 14  1  0
 14 15  1  0
 15 16  1  0
 16 17  1  0
 17 18  1  0
 17 19  1  0
 19 20  2  0
 20 21  1  0
 21 22  2  0
 22 23  1  0
 23 24  2  0
 24 25  1  0
 21 26  1  0
 26 27  3  0
 13  4  1  0
 25 14  1  0
 12  7  1  0
 24 19  1  0
M  END
>  <AAScore>  (1) 
-1.250660881556009

>  <RootName>  (1) 
./4ZLY/04_DeltaGEst/trajectory_03/rank_01/lead_0061

$$$$
