confid_2
     RDKit          3D

 28 31  0  0  0  0  0  0  0  0999 V2000
   24.6900   26.1200   35.5300 N   0  0  0  0  0  0  0  0  0  0  0  0
   25.6600   25.6700   34.6600 C   0  0  0  0  0  0  0  0  0  0  0  0
   25.2400   25.0100   33.7200 O   0  0  0  0  0  0  0  0  0  0  0  0
   27.0300   26.2200   34.8800 C   0  0  0  0  0  0  0  0  0  0  0  0
   27.3500   26.7300   36.0700 N   0  0  0  0  0  0  0  0  0  0  0  0
   28.5700   27.1800   36.3300 N   0  0  0  0  0  0  0  0  0  0  0  0
   29.5300   27.1100   35.3900 C   0  0  0  0  0  0  0  0  0  0  0  0
   30.8300   27.5700   35.6500 C   0  0  0  0  0  0  0  0  0  0  0  0
   31.8500   27.5400   34.6900 C   0  0  0  0  0  0  0  0  0  0  0  0
   31.5100   27.1200   33.4000 C   0  0  0  0  0  0  0  0  0  0  0  0
   30.2200   26.6300   33.1100 C   0  0  0  0  0  0  0  0  0  0  0  0
   29.2400   26.6600   34.1000 C   0  0  0  0  0  0  0  0  0  0  0  0
   27.9300   26.2600   33.8100 C   0  0  0  0  0  0  0  0  0  0  0  0
   27.5200   25.7100   32.6100 N   0  0  0  0  0  0  0  0  0  0  0  0
   31.1367   28.0765   36.9596 N   0  0  0  0  0  0  0  0  0  0  0  0
   31.9436   27.2850   37.8951 C   0  0  0  0  0  0  0  0  0  0  0  0
   33.4115   27.7373   37.9082 C   0  0  0  0  0  0  0  0  0  0  0  0
   33.5777   29.2586   38.0205 C   0  0  0  0  0  0  0  0  0  0  0  0
   33.1731   29.8966   36.7403 N   0  0  0  0  0  0  0  0  0  0  0  0
   34.1585   30.9145   36.2854 C   0  0  2  0  0  0  0  0  0  0  0  0
   33.7960   31.5333   34.9387 C   0  0  0  0  0  0  0  0  0  0  0  0
   34.9751   31.9319   34.2849 O   0  0  0  0  0  0  0  0  0  0  0  0
   36.0323   31.1796   34.8317 C   0  0  0  0  0  0  0  0  0  0  0  0
   36.9938   32.0484   35.3178 F   0  0  0  0  0  0  0  0  0  0  0  0
   36.5971   30.3932   33.8429 F   0  0  0  0  0  0  0  0  0  0  0  0
   35.5043   30.3072   35.9601 C   0  0  0  0  0  0  0  0  0  0  0  0
   31.8024   30.4632   36.8273 C   0  0  0  0  0  0  0  0  0  0  0  0
   30.7566   29.4457   37.3196 C   0  0  0  0  0  0  0  0  0  0  0  0
  1  2  1  0
  2  3  2  0
  2  4  1  0
  4  5  2  0
  5  6  1  0
  6  7  2  0
  7  8  1  0
  8  9  2  0
  9 10  1  0
 10 11  2  0
 11 12  1  0
 12 13  2  0
 13 14  1  0
  8 15  1  0
 15 16  1  0
 16 17  1  0
 17 18  1  0
 18 19  1  0
 20 19  1  6
 20 21  1  0
 21 22  1  0
 22 23  1  0
 23 24  1  0
 23 25  1  0
 23 26  1  0
 19 27  1  0
 27 28  1  0
 13  4  1  0
 28 15  1  0
 12  7  1  0
 26 20  1  0
M  END
>  <AAScore>  (1) 
279.4057001216448

>  <RootName>  (1) 
./4ZLY/04_DeltaGEst/trajectory_02/rank_01/lead_0292

$$$$
