confid_2
     RDKit          3D

 27 30  0  0  0  0  0  0  0  0999 V2000
   25.3300   26.2600   34.7600 N   0  0  0  0  0  0  0  0  0  0  0  0
   26.1200   25.9200   33.6900 C   0  0  0  0  0  0  0  0  0  0  0  0
   25.6300   25.1100   32.9400 O   0  0  0  0  0  0  0  0  0  0  0  0
   27.5200   26.3800   33.4600 C   0  0  0  0  0  0  0  0  0  0  0  0
   28.1600   26.6300   34.6100 N   0  0  0  0  0  0  0  0  0  0  0  0
   29.4800   26.8500   34.5700 N   0  0  0  0  0  0  0  0  0  0  0  0
   30.1900   26.7800   33.4400 C   0  0  0  0  0  0  0  0  0  0  0  0
   31.5600   27.0500   33.5000 C   0  0  0  0  0  0  0  0  0  0  0  0
   32.2700   27.2400   32.3100 C   0  0  0  0  0  0  0  0  0  0  0  0
   31.6100   27.2500   31.0800 C   0  0  0  0  0  0  0  0  0  0  0  0
   30.2700   26.8700   31.0600 C   0  0  0  0  0  0  0  0  0  0  0  0
   29.5100   26.6900   32.2300 C   0  0  0  0  0  0  0  0  0  0  0  0
   28.1400   26.4100   32.2000 C   0  0  0  0  0  0  0  0  0  0  0  0
   27.4300   26.1300   31.0500 N   0  0  0  0  0  0  0  0  0  0  0  0
   23.8905   26.2280   34.7753 C   0  0  0  0  0  0  0  0  0  0  0  0
   23.2484   26.0634   35.9644 N   0  0  0  0  0  0  0  0  0  0  0  0
   21.8928   26.0582   36.0613 C   0  0  0  0  0  0  0  0  0  0  0  0
   21.1084   26.2395   34.9213 C   0  0  0  0  0  0  0  0  0  0  0  0
   19.7119   26.2342   35.0259 O   0  0  0  0  0  0  0  0  0  0  0  0
   18.8526   26.5647   33.9301 C   0  0  1  0  0  0  0  0  0  0  0  0
   18.5509   28.0460   33.9226 C   0  0  0  0  0  0  0  0  0  0  0  0
   17.3016   28.5709   33.2810 C   0  0  0  0  0  0  0  0  0  0  0  0
   19.3452   28.8367   34.4101 O   0  0  0  0  0  0  0  0  0  0  0  0
   19.4801   26.1136   32.5986 C   0  0  0  0  0  0  0  0  0  0  0  0
   20.9081   26.6563   32.4399 C   0  0  0  0  0  0  0  0  0  0  0  0
   21.7348   26.4122   33.6759 C   0  0  0  0  0  0  0  0  0  0  0  0
   23.1334   26.4296   33.6066 C   0  0  0  0  0  0  0  0  0  0  0  0
  1  2  1  0
  2  3  2  0
  2  4  1  0
  4  5  2  0
  5  6  1  0
  6  7  2  0
  7  8  1  0
  8  9  2  0
  9 10  1  0
 10 11  2  0
 11 12  1  0
 12 13  2  0
 13 14  1  0
  1 15  1  0
 15 16  2  0
 16 17  1  0
 17 18  2  0
 18 19  1  0
 19 20  1  0
 20 21  1  6
 21 22  1  0
 21 23  2  0
 20 24  1  0
 24 25  1  0
 25 26  1  0
 26 27  2  0
 13  4  1  0
 27 15  1  0
 12  7  1  0
 26 18  1  0
M  END
>  <AAScore>  (1) 
1240.146347798582

>  <RootName>  (1) 
./4ZLY/04_DeltaGEst/trajectory_03/rank_00/lead_0232

$$$$
