confid_5
     RDKit          3D

 32 35  0  0  0  0  0  0  0  0999 V2000
   24.5700   26.8800   35.5900 N   0  0  0  0  0  0  0  0  0  0  0  0
   25.5000   26.4000   34.6900 C   0  0  0  0  0  0  0  0  0  0  0  0
   25.1700   25.5200   33.9100 O   0  0  0  0  0  0  0  0  0  0  0  0
   26.8400   27.0200   34.7400 C   0  0  0  0  0  0  0  0  0  0  0  0
   27.3800   27.2800   35.9400 N   0  0  0  0  0  0  0  0  0  0  0  0
   28.6200   27.7400   36.0300 N   0  0  0  0  0  0  0  0  0  0  0  0
   29.3800   28.0000   34.9600 C   0  0  0  0  0  0  0  0  0  0  0  0
   30.6700   28.5000   35.1300 C   0  0  0  0  0  0  0  0  0  0  0  0
   31.5400   28.6100   34.0300 C   0  0  0  0  0  0  0  0  0  0  0  0
   31.0900   28.2200   32.7700 C   0  0  0  0  0  0  0  0  0  0  0  0
   29.8000   27.7000   32.6000 C   0  0  0  0  0  0  0  0  0  0  0  0
   28.9600   27.5500   33.7100 C   0  0  0  0  0  0  0  0  0  0  0  0
   27.6600   27.0300   33.5900 C   0  0  0  0  0  0  0  0  0  0  0  0
   27.1600   26.7400   32.3400 N   0  0  0  0  0  0  0  0  0  0  0  0
   23.1843   26.4940   35.5516 C   0  0  0  0  0  0  0  0  0  0  0  0
   22.4576   26.6599   34.4821 N   0  0  0  0  0  0  0  0  0  0  0  0
   22.8728   27.3967   33.3237 C   0  0  0  0  0  0  0  0  0  0  0  0
   22.2494   27.3036   32.1345 C   0  0  0  0  0  0  0  0  0  0  0  0
   22.7268   28.1582   30.9818 C   0  0  0  0  0  0  0  0  0  0  0  0
   22.7696   27.3997   29.7173 N   0  0  0  0  0  0  0  0  0  0  0  0
   21.4899   26.7097   29.4466 C   0  0  0  0  0  0  0  0  0  0  0  0
   21.0917   25.7422   30.5726 C   0  0  0  0  0  0  0  0  0  0  0  0
   21.1460   26.4062   31.8802 N   0  0  0  0  0  0  0  0  0  0  0  0
   20.0656   26.1655   32.8479 C   0  0  0  0  0  0  0  0  0  0  0  0
   20.1115   24.7138   33.3445 C   0  0  0  0  0  0  0  0  0  0  0  0
   19.7795   24.6653   34.7155 O   0  0  0  0  0  0  0  0  0  0  0  0
   19.8421   23.3342   35.1998 C   0  0  0  0  0  0  0  0  0  0  0  0
   20.7561   23.2724   36.4261 C   0  0  0  0  0  0  0  0  0  0  0  0
   22.2454   23.4861   36.0657 C   0  0  0  0  0  0  0  0  0  0  0  0
   22.9538   24.4562   37.0230 C   0  0  0  0  0  0  0  0  0  0  0  0
   22.5538   25.9232   36.7909 C   0  0  0  0  0  0  0  0  0  0  0  0
   23.9275   26.4886   29.6655 C   0  0  0  0  0  0  0  0  0  0  0  0
  1  2  1  0
  2  3  2  0
  2  4  1  0
  4  5  2  0
  5  6  1  0
  6  7  2  0
  7  8  1  0
  8  9  2  0
  9 10  1  0
 10 11  2  0
 11 12  1  0
 12 13  2  0
 13 14  1  0
  1 15  1  0
 15 16  2  0
 16 17  1  0
 17 18  2  0
 18 19  1  0
 19 20  1  0
 20 21  1  0
 21 22  1  0
 22 23  1  0
 23 24  1  0
 24 25  1  0
 25 26  1  0
 26 27  1  0
 27 28  1  0
 28 29  1  0
 29 30  1  0
 30 31  1  0
 20 32  1  0
 13  4  1  0
 31 15  1  0
 12  7  1  0
 23 18  1  0
M  END
>  <AAScore>  (1) 
7332.312597405087

>  <RootName>  (1) 
./4ZLY/04_DeltaGEst/trajectory_05/rank_00/lead_0197

$$$$
