confid_9
     RDKit          3D

 28 31  0  0  0  0  0  0  0  0999 V2000
   24.4800   26.1000   36.1300 N   0  0  0  0  0  0  0  0  0  0  0  0
   25.2500   26.2500   34.9900 C   0  0  0  0  0  0  0  0  0  0  0  0
   24.7400   25.7600   33.9900 O   0  0  0  0  0  0  0  0  0  0  0  0
   26.5900   26.8900   34.9600 C   0  0  0  0  0  0  0  0  0  0  0  0
   27.0600   27.2400   36.1600 N   0  0  0  0  0  0  0  0  0  0  0  0
   28.3000   27.7100   36.2400 N   0  0  0  0  0  0  0  0  0  0  0  0
   29.0500   27.9600   35.1500 C   0  0  0  0  0  0  0  0  0  0  0  0
   30.3400   28.4900   35.2600 C   0  0  0  0  0  0  0  0  0  0  0  0
   31.1100   28.8200   34.1400 C   0  0  0  0  0  0  0  0  0  0  0  0
   30.5200   28.6700   32.8800 C   0  0  0  0  0  0  0  0  0  0  0  0
   29.2900   28.0200   32.7700 C   0  0  0  0  0  0  0  0  0  0  0  0
   28.5200   27.7100   33.8900 C   0  0  0  0  0  0  0  0  0  0  0  0
   27.2700   27.0800   33.7600 C   0  0  0  0  0  0  0  0  0  0  0  0
   26.7500   26.8800   32.4900 N   0  0  0  0  0  0  0  0  0  0  0  0
   23.4173   25.1350   36.2806 C   0  0  0  0  0  0  0  0  0  0  0  0
   23.4848   23.9574   35.6013 N   0  0  0  0  0  0  0  0  0  0  0  0
   22.5524   22.9829   35.7329 C   0  0  0  0  0  0  0  0  0  0  0  0
   21.4783   23.1492   36.6106 C   0  0  0  0  0  0  0  0  0  0  0  0
   20.4132   22.0728   36.7135 C   0  0  0  0  0  0  0  0  0  0  0  0
   19.2471   22.3019   35.8199 N   0  0  0  0  0  0  0  0  0  0  0  0
   19.4414   21.6018   34.5376 C   0  0  0  0  0  0  0  0  0  0  0  0
   18.9259   23.7293   35.5671 C   0  0  0  0  0  0  0  0  0  0  0  0
   18.2874   24.4519   36.7681 C   0  0  0  0  0  0  0  0  0  0  0  0
   19.0044   24.4113   38.0505 N   0  0  0  0  0  0  0  0  0  0  0  0
   20.2764   24.5019   38.3189 C   0  0  0  0  0  0  0  0  0  0  0  0
   21.3526   24.3648   37.3165 C   0  0  0  0  0  0  0  0  0  0  0  0
   22.3316   25.3748   37.1564 C   0  0  0  0  0  0  0  0  0  0  0  0
   22.2334   26.6841   37.9060 C   0  0  0  0  0  0  0  0  0  0  0  0
  1  2  1  0
  2  3  2  0
  2  4  1  0
  4  5  2  0
  5  6  1  0
  6  7  2  0
  7  8  1  0
  8  9  2  0
  9 10  1  0
 10 11  2  0
 11 12  1  0
 12 13  2  0
 13 14  1  0
  1 15  1  0
 15 16  2  0
 16 17  1  0
 17 18  2  0
 18 19  1  0
 19 20  1  0
 20 21  1  0
 20 22  1  0
 22 23  1  0
 23 24  1  0
 24 25  2  0
 25 26  1  0
 26 27  2  0
 27 28  1  0
 13  4  1  0
 27 15  1  0
 12  7  1  0
 26 18  1  0
M  END
>  <AAScore>  (1) 
2820.808695815992

>  <RootName>  (1) 
./4ZLY/04_DeltaGEst/trajectory_00/rank_01/lead_0182

$$$$
