confid_17
     RDKit          3D

 29 33  0  0  0  0  0  0  0  0999 V2000
   24.2000   26.2400   35.6900 N   0  0  0  0  0  0  0  0  0  0  0  0
   24.8500   26.2800   34.4800 C   0  0  0  0  0  0  0  0  0  0  0  0
   24.3100   25.7400   33.5400 O   0  0  0  0  0  0  0  0  0  0  0  0
   26.1800   26.9700   34.4700 C   0  0  0  0  0  0  0  0  0  0  0  0
   26.6500   27.6000   35.5500 N   0  0  0  0  0  0  0  0  0  0  0  0
   27.7900   28.2700   35.6200 N   0  0  0  0  0  0  0  0  0  0  0  0
   28.5400   28.3000   34.5100 C   0  0  0  0  0  0  0  0  0  0  0  0
   29.7700   28.9400   34.5600 C   0  0  0  0  0  0  0  0  0  0  0  0
   30.7000   28.8900   33.5000 C   0  0  0  0  0  0  0  0  0  0  0  0
   30.3700   28.1400   32.3700 C   0  0  0  0  0  0  0  0  0  0  0  0
   29.1200   27.5200   32.2800 C   0  0  0  0  0  0  0  0  0  0  0  0
   28.2100   27.6100   33.3300 C   0  0  0  0  0  0  0  0  0  0  0  0
   26.9700   26.9700   33.3100 C   0  0  0  0  0  0  0  0  0  0  0  0
   26.5300   26.2400   32.2200 N   0  0  0  0  0  0  0  0  0  0  0  0
   22.8147   25.8769   35.8459 C   0  0  0  0  0  0  0  0  0  0  0  0
   21.9350   25.7921   34.8268 N   0  0  0  0  0  0  0  0  0  0  0  0
   20.7686   25.4680   35.4265 C   0  0  0  0  0  0  0  0  0  0  0  0
   19.5060   25.2362   34.6498 C   0  0  0  0  0  0  0  0  0  0  0  0
   18.3931   26.2274   35.0377 C   0  0  0  0  0  0  0  0  0  0  0  0
   18.3575   26.5150   36.4903 N   0  0  0  0  0  0  0  0  0  0  0  0
   18.3989   25.2922   37.3211 C   0  0  0  0  0  0  0  0  0  0  0  0
   19.8425   24.9865   37.7614 C   0  0  0  0  0  0  0  0  0  0  0  0
   20.8719   25.3674   36.7763 N   0  0  0  0  0  0  0  0  0  0  0  0
   22.1781   25.5966   37.0405 C   0  0  0  0  0  0  0  0  0  0  0  0
   22.8027   25.5876   38.4063 C   0  0  0  0  0  0  0  0  0  0  0  0
   17.2461   27.4242   36.8460 C   0  0  0  0  0  0  0  0  0  0  0  0
   15.8548   26.7858   36.6342 C   0  0  0  0  0  0  0  0  0  0  0  0
   15.0633   27.2654   35.4229 C   0  0  0  0  0  0  0  0  0  0  0  0
   14.6989   27.7616   36.8127 C   0  0  0  0  0  0  0  0  0  0  0  0
  1  2  1  0
  2  3  2  0
  2  4  1  0
  4  5  2  0
  5  6  1  0
  6  7  2  0
  7  8  1  0
  8  9  2  0
  9 10  1  0
 10 11  2  0
 11 12  1  0
 12 13  2  0
 13 14  1  0
  1 15  1  0
 15 16  1  0
 16 17  2  0
 17 18  1  0
 18 19  1  0
 19 20  1  0
 20 21  1  0
 21 22  1  0
 22 23  1  0
 23 24  1  0
 24 25  1  0
 20 26  1  0
 26 27  1  0
 27 28  1  0
 28 29  1  0
 13  4  1  0
 24 15  2  0
 29 27  1  0
 12  7  1  0
 23 17  1  0
M  END
>  <AAScore>  (1) 
1073.5686315379062

>  <RootName>  (1) 
./4ZLY/04_DeltaGEst/trajectory_04/rank_00/lead_0121

$$$$
