confid_18
     RDKit          3D

 27 30  0  0  0  0  0  0  0  0999 V2000
   24.5700   26.8800   35.5900 N   0  0  0  0  0  0  0  0  0  0  0  0
   25.5000   26.4000   34.6900 C   0  0  0  0  0  0  0  0  0  0  0  0
   25.1700   25.5200   33.9100 O   0  0  0  0  0  0  0  0  0  0  0  0
   26.8400   27.0200   34.7400 C   0  0  0  0  0  0  0  0  0  0  0  0
   27.3800   27.2800   35.9400 N   0  0  0  0  0  0  0  0  0  0  0  0
   28.6200   27.7400   36.0300 N   0  0  0  0  0  0  0  0  0  0  0  0
   29.3800   28.0000   34.9600 C   0  0  0  0  0  0  0  0  0  0  0  0
   30.6700   28.5000   35.1300 C   0  0  0  0  0  0  0  0  0  0  0  0
   31.5400   28.6100   34.0300 C   0  0  0  0  0  0  0  0  0  0  0  0
   31.0900   28.2200   32.7700 C   0  0  0  0  0  0  0  0  0  0  0  0
   29.8000   27.7000   32.6000 C   0  0  0  0  0  0  0  0  0  0  0  0
   28.9600   27.5500   33.7100 C   0  0  0  0  0  0  0  0  0  0  0  0
   27.6600   27.0300   33.5900 C   0  0  0  0  0  0  0  0  0  0  0  0
   27.1600   26.7400   32.3400 N   0  0  0  0  0  0  0  0  0  0  0  0
   23.1519   26.6420   35.5241 C   0  0  0  0  0  0  0  0  0  0  0  0
   22.3674   26.9810   36.4968 N   0  0  0  0  0  0  0  0  0  0  0  0
   21.0401   26.6542   36.1130 C   0  0  0  0  0  0  0  0  0  0  0  0
   21.0152   26.1206   34.9054 C   0  0  0  0  0  0  0  0  0  0  0  0
   19.7874   25.7958   34.1176 C   0  0  0  0  0  0  0  0  0  0  0  0
   20.1520   25.3172   32.8356 O   0  0  0  0  0  0  0  0  0  0  0  0
   20.5790   26.3390   31.9208 C   0  0  1  0  0  0  0  0  0  0  0  0
   19.3561   27.0910   31.3477 C   0  0  0  0  0  0  0  0  0  0  0  0
   21.5479   27.3798   32.5634 C   0  0  0  0  0  0  0  0  0  0  0  0
   22.6810   26.7698   33.1613 O   0  0  0  0  0  0  0  0  0  0  0  0
   22.4119   26.0427   34.3611 C   0  0  1  0  0  0  0  0  0  0  0  0
   21.3058   25.7580   30.8401 O   0  0  0  0  0  0  0  0  0  0  0  0
   20.7630   24.5282   30.4001 C   0  0  0  0  0  0  0  0  0  0  0  0
  1  2  1  0
  2  3  2  0
  2  4  1  0
  4  5  2  0
  5  6  1  0
  6  7  2  0
  7  8  1  0
  8  9  2  0
  9 10  1  0
 10 11  2  0
 11 12  1  0
 12 13  2  0
 13 14  1  0
  1 15  1  0
 15 16  2  0
 16 17  1  0
 17 18  2  0
 18 19  1  0
 19 20  1  0
 20 21  1  0
 21 22  1  6
 21 23  1  0
 23 24  1  0
 25 24  1  6
 21 26  1  0
 26 27  1  0
 13  4  1  0
 25 15  1  0
 12  7  1  0
 25 18  1  0
M  END
>  <AAScore>  (1) 
455.70846020491

>  <RootName>  (1) 
./4ZLY/04_DeltaGEst/trajectory_05/rank_00/lead_0013

$$$$
