confid_4
     RDKit          3D

 28 31  0  0  0  0  0  0  0  0999 V2000
   24.6900   26.1200   35.5300 N   0  0  0  0  0  0  0  0  0  0  0  0
   25.6600   25.6700   34.6600 C   0  0  0  0  0  0  0  0  0  0  0  0
   25.2400   25.0100   33.7200 O   0  0  0  0  0  0  0  0  0  0  0  0
   27.0300   26.2200   34.8800 C   0  0  0  0  0  0  0  0  0  0  0  0
   27.3500   26.7300   36.0700 N   0  0  0  0  0  0  0  0  0  0  0  0
   28.5700   27.1800   36.3300 N   0  0  0  0  0  0  0  0  0  0  0  0
   29.5300   27.1100   35.3900 C   0  0  0  0  0  0  0  0  0  0  0  0
   30.8300   27.5700   35.6500 C   0  0  0  0  0  0  0  0  0  0  0  0
   31.8500   27.5400   34.6900 C   0  0  0  0  0  0  0  0  0  0  0  0
   31.5100   27.1200   33.4000 C   0  0  0  0  0  0  0  0  0  0  0  0
   30.2200   26.6300   33.1100 C   0  0  0  0  0  0  0  0  0  0  0  0
   29.2400   26.6600   34.1000 C   0  0  0  0  0  0  0  0  0  0  0  0
   27.9300   26.2600   33.8100 C   0  0  0  0  0  0  0  0  0  0  0  0
   27.5200   25.7100   32.6100 N   0  0  0  0  0  0  0  0  0  0  0  0
   31.1546   28.0538   36.9631 N   0  0  0  0  0  0  0  0  0  0  0  0
   31.1721   27.2138   38.1507 C   0  0  0  0  0  0  0  0  0  0  0  0
   31.7256   28.1020   39.2633 C   0  0  0  0  0  0  0  0  0  0  0  0
   32.0098   29.3925   38.6406 N   0  0  0  0  0  0  0  0  0  0  0  0
   32.5565   30.5344   39.3420 C   0  0  0  0  0  0  0  0  0  0  0  0
   32.8098   31.7442   38.6633 C   0  0  0  0  0  0  0  0  0  0  0  0
   33.3426   32.8569   39.3443 C   0  0  0  0  0  0  0  0  0  0  0  0
   33.6070   34.0758   38.7006 O   0  0  0  0  0  0  0  0  0  0  0  0
   33.3711   34.3264   37.3189 C   0  0  0  0  0  0  0  0  0  0  0  0
   33.6218   32.7535   40.7111 C   0  0  0  0  0  0  0  0  0  0  0  0
   33.3750   31.5618   41.3933 C   0  0  0  0  0  0  0  0  0  0  0  0
   32.8472   30.4601   40.7177 C   0  0  0  0  0  0  0  0  0  0  0  0
   34.1354   33.8150   41.3817 F   0  0  0  0  0  0  0  0  0  0  0  0
   31.6802   29.3801   37.2235 C   0  0  0  0  0  0  0  0  0  0  0  0
  1  2  1  0
  2  3  2  0
  2  4  1  0
  4  5  2  0
  5  6  1  0
  6  7  2  0
  7  8  1  0
  8  9  2  0
  9 10  1  0
 10 11  2  0
 11 12  1  0
 12 13  2  0
 13 14  1  0
  8 15  1  0
 15 16  1  0
 16 17  1  0
 17 18  1  0
 18 19  1  0
 19 20  2  0
 20 21  1  0
 21 22  1  0
 22 23  1  0
 21 24  2  0
 24 25  1  0
 25 26  2  0
 24 27  1  0
 18 28  1  0
 13  4  1  0
 28 15  1  0
 12  7  1  0
 26 19  1  0
M  END
>  <AAScore>  (1) 
18.43226042640096

>  <RootName>  (1) 
./4ZLY/04_DeltaGEst/trajectory_02/rank_01/lead_0078

$$$$
