confid_8
     RDKit          3D

 28 31  0  0  0  0  0  0  0  0999 V2000
   25.3300   26.2600   34.7600 N   0  0  0  0  0  0  0  0  0  0  0  0
   26.1200   25.9200   33.6900 C   0  0  0  0  0  0  0  0  0  0  0  0
   25.6300   25.1100   32.9400 O   0  0  0  0  0  0  0  0  0  0  0  0
   27.5200   26.3800   33.4600 C   0  0  0  0  0  0  0  0  0  0  0  0
   28.1600   26.6300   34.6100 N   0  0  0  0  0  0  0  0  0  0  0  0
   29.4800   26.8500   34.5700 N   0  0  0  0  0  0  0  0  0  0  0  0
   30.1900   26.7800   33.4400 C   0  0  0  0  0  0  0  0  0  0  0  0
   31.5600   27.0500   33.5000 C   0  0  0  0  0  0  0  0  0  0  0  0
   32.2700   27.2400   32.3100 C   0  0  0  0  0  0  0  0  0  0  0  0
   31.6100   27.2500   31.0800 C   0  0  0  0  0  0  0  0  0  0  0  0
   30.2700   26.8700   31.0600 C   0  0  0  0  0  0  0  0  0  0  0  0
   29.5100   26.6900   32.2300 C   0  0  0  0  0  0  0  0  0  0  0  0
   28.1400   26.4100   32.2000 C   0  0  0  0  0  0  0  0  0  0  0  0
   27.4300   26.1300   31.0500 N   0  0  0  0  0  0  0  0  0  0  0  0
   27.5663   24.8089   30.4213 C   0  0  0  0  0  0  0  0  0  0  0  0
   26.5596   24.6212   29.2806 C   0  0  0  0  0  0  0  0  0  0  0  0
   26.5463   25.7998   28.3988 N   0  0  0  0  0  0  0  0  0  0  0  0
   26.3718   25.6642   26.9728 C   0  0  0  0  0  0  0  0  0  0  0  0
   26.7551   26.5959   26.2123 O   0  0  0  0  0  0  0  0  0  0  0  0
   25.7830   24.4127   26.3684 C   0  0  0  0  0  0  0  0  0  0  0  0
   25.0306   24.6975   25.0631 C   0  0  0  0  0  0  0  0  0  0  0  0
   24.4134   23.4412   24.5296 C   0  0  0  0  0  0  0  0  0  0  0  0
   23.1558   22.9606   24.8168 C   0  0  0  0  0  0  0  0  0  0  0  0
   22.9908   21.7685   24.2095 N   0  0  0  0  0  0  0  0  0  0  0  0
   24.1624   21.5517   23.5731 C   0  0  0  0  0  0  0  0  0  0  0  0
   25.0489   22.5481   23.7560 N   0  0  0  0  0  0  0  0  0  0  0  0
   26.6267   27.1540   28.9700 C   0  0  0  0  0  0  0  0  0  0  0  0
   26.5166   27.1340   30.4965 C   0  0  0  0  0  0  0  0  0  0  0  0
  1  2  1  0
  2  3  2  0
  2  4  1  0
  4  5  2  0
  5  6  1  0
  6  7  2  0
  7  8  1  0
  8  9  2  0
  9 10  1  0
 10 11  2  0
 11 12  1  0
 12 13  2  0
 13 14  1  0
 14 15  1  0
 15 16  1  0
 16 17  1  0
 17 18  1  0
 18 19  2  0
 18 20  1  0
 20 21  1  0
 21 22  1  0
 22 23  2  0
 23 24  1  0
 24 25  2  0
 25 26  1  0
 17 27  1  0
 27 28  1  0
 13  4  1  0
 28 14  1  0
 12  7  1  0
 26 22  1  0
M  END
>  <AAScore>  (1) 
1.844571291794492

>  <RootName>  (1) 
./4ZLY/04_DeltaGEst/trajectory_03/rank_01/lead_0382

$$$$
