confid_11
     RDKit          3D

 30 34  0  0  0  0  0  0  0  0999 V2000
   25.3300   26.2600   34.7600 N   0  0  0  0  0  0  0  0  0  0  0  0
   26.1200   25.9200   33.6900 C   0  0  0  0  0  0  0  0  0  0  0  0
   25.6300   25.1100   32.9400 O   0  0  0  0  0  0  0  0  0  0  0  0
   27.5200   26.3800   33.4600 C   0  0  0  0  0  0  0  0  0  0  0  0
   28.1600   26.6300   34.6100 N   0  0  0  0  0  0  0  0  0  0  0  0
   29.4800   26.8500   34.5700 N   0  0  0  0  0  0  0  0  0  0  0  0
   30.1900   26.7800   33.4400 C   0  0  0  0  0  0  0  0  0  0  0  0
   31.5600   27.0500   33.5000 C   0  0  0  0  0  0  0  0  0  0  0  0
   32.2700   27.2400   32.3100 C   0  0  0  0  0  0  0  0  0  0  0  0
   31.6100   27.2500   31.0800 C   0  0  0  0  0  0  0  0  0  0  0  0
   30.2700   26.8700   31.0600 C   0  0  0  0  0  0  0  0  0  0  0  0
   29.5100   26.6900   32.2300 C   0  0  0  0  0  0  0  0  0  0  0  0
   28.1400   26.4100   32.2000 C   0  0  0  0  0  0  0  0  0  0  0  0
   27.4300   26.1300   31.0500 N   0  0  0  0  0  0  0  0  0  0  0  0
   27.5669   24.8094   30.4200 C   0  0  0  0  0  0  0  0  0  0  0  0
   26.5507   24.6204   29.2885 C   0  0  0  0  0  0  0  0  0  0  0  0
   26.5341   25.7943   28.4012 N   0  0  0  0  0  0  0  0  0  0  0  0
   26.2723   25.6337   26.9898 C   0  0  0  0  0  0  0  0  0  0  0  0
   25.3710   24.6503   26.5341 C   0  0  0  0  0  0  0  0  0  0  0  0
   25.1084   24.5031   25.1678 C   0  0  0  0  0  0  0  0  0  0  0  0
   24.2260   23.5637   24.7457 F   0  0  0  0  0  0  0  0  0  0  0  0
   25.7398   25.3386   24.2439 C   0  0  0  0  0  0  0  0  0  0  0  0
   26.6568   26.3019   24.6818 C   0  0  0  0  0  0  0  0  0  0  0  0
   26.9102   26.4623   26.0467 C   0  0  0  0  0  0  0  0  0  0  0  0
   27.3123   27.0962   23.7353 O   0  0  0  0  0  0  0  0  0  0  0  0
   27.2778   26.7676   22.3442 C   0  0  0  0  0  0  0  0  0  0  0  0
   25.8894   26.2423   21.9572 C   0  0  0  0  0  0  0  0  0  0  0  0
   25.4700   25.2298   22.8755 O   0  0  0  0  0  0  0  0  0  0  0  0
   26.6339   27.1508   28.9672 C   0  0  0  0  0  0  0  0  0  0  0  0
   26.5201   27.1359   30.4934 C   0  0  0  0  0  0  0  0  0  0  0  0
  1  2  1  0
  2  3  2  0
  2  4  1  0
  4  5  2  0
  5  6  1  0
  6  7  2  0
  7  8  1  0
  8  9  2  0
  9 10  1  0
 10 11  2  0
 11 12  1  0
 12 13  2  0
 13 14  1  0
 14 15  1  0
 15 16  1  0
 16 17  1  0
 17 18  1  0
 18 19  2  0
 19 20  1  0
 20 21  1  0
 20 22  2  0
 22 23  1  0
 23 24  2  0
 23 25  1  0
 25 26  1  0
 26 27  1  0
 27 28  1  0
 17 29  1  0
 29 30  1  0
 13  4  1  0
 30 14  1  0
 12  7  1  0
 24 18  1  0
 28 22  1  0
M  END
>  <AAScore>  (1) 
3.415809296175435

>  <RootName>  (1) 
./4ZLY/04_DeltaGEst/trajectory_03/rank_01/lead_0204

$$$$
