confid_15
     RDKit          3D

 28 31  0  0  0  0  0  0  0  0999 V2000
   25.3300   26.2600   34.7600 N   0  0  0  0  0  0  0  0  0  0  0  0
   26.1200   25.9200   33.6900 C   0  0  0  0  0  0  0  0  0  0  0  0
   25.6300   25.1100   32.9400 O   0  0  0  0  0  0  0  0  0  0  0  0
   27.5200   26.3800   33.4600 C   0  0  0  0  0  0  0  0  0  0  0  0
   28.1600   26.6300   34.6100 N   0  0  0  0  0  0  0  0  0  0  0  0
   29.4800   26.8500   34.5700 N   0  0  0  0  0  0  0  0  0  0  0  0
   30.1900   26.7800   33.4400 C   0  0  0  0  0  0  0  0  0  0  0  0
   31.5600   27.0500   33.5000 C   0  0  0  0  0  0  0  0  0  0  0  0
   32.2700   27.2400   32.3100 C   0  0  0  0  0  0  0  0  0  0  0  0
   31.6100   27.2500   31.0800 C   0  0  0  0  0  0  0  0  0  0  0  0
   30.2700   26.8700   31.0600 C   0  0  0  0  0  0  0  0  0  0  0  0
   29.5100   26.6900   32.2300 C   0  0  0  0  0  0  0  0  0  0  0  0
   28.1400   26.4100   32.2000 C   0  0  0  0  0  0  0  0  0  0  0  0
   27.4300   26.1300   31.0500 N   0  0  0  0  0  0  0  0  0  0  0  0
   24.1920   25.5027   35.2260 C   0  0  0  0  0  0  0  0  0  0  0  0
   24.1221   24.1713   34.9680 N   0  0  0  0  0  0  0  0  0  0  0  0
   23.1110   23.3732   35.3975 C   0  0  0  0  0  0  0  0  0  0  0  0
   23.1936   21.9132   35.0182 C   0  0  0  0  0  0  0  0  0  0  0  0
   21.8195   21.2704   34.7739 C   0  0  0  0  0  0  0  0  0  0  0  0
   21.1951   20.7676   35.9439 O   0  0  0  0  0  0  0  0  0  0  0  0
   21.2654   21.6451   37.0563 C   0  0  0  0  0  0  0  0  0  0  0  0
   20.9149   23.1069   36.7328 C   0  0  0  0  0  0  0  0  0  0  0  0
   22.0956   23.9224   36.2237 C   0  0  0  0  0  0  0  0  0  0  0  0
   22.1388   25.3069   36.5045 C   0  0  0  0  0  0  0  0  0  0  0  0
   21.1376   25.8808   37.2960 O   0  0  0  0  0  0  0  0  0  0  0  0
   21.3556   26.1849   38.6692 C   0  0  0  0  0  0  0  0  0  0  0  0
   23.1700   26.1135   35.9785 C   0  0  0  0  0  0  0  0  0  0  0  0
   23.1755   27.6044   36.2120 C   0  0  0  0  0  0  0  0  0  0  0  0
  1  2  1  0
  2  3  2  0
  2  4  1  0
  4  5  2  0
  5  6  1  0
  6  7  2  0
  7  8  1  0
  8  9  2  0
  9 10  1  0
 10 11  2  0
 11 12  1  0
 12 13  2  0
 13 14  1  0
  1 15  1  0
 15 16  2  0
 16 17  1  0
 17 18  1  0
 18 19  1  0
 19 20  1  0
 20 21  1  0
 21 22  1  0
 22 23  1  0
 23 24  1  0
 24 25  1  0
 25 26  1  0
 24 27  2  0
 27 28  1  0
 13  4  1  0
 27 15  1  0
 12  7  1  0
 23 17  2  0
M  END
>  <AAScore>  (1) 
3118.030842616761

>  <RootName>  (1) 
./4ZLY/04_DeltaGEst/trajectory_03/rank_00/lead_0226

$$$$
