confid_14
     RDKit          3D

 28 31  0  0  0  0  0  0  0  0999 V2000
   25.3300   26.2600   34.7600 N   0  0  0  0  0  0  0  0  0  0  0  0
   26.1200   25.9200   33.6900 C   0  0  0  0  0  0  0  0  0  0  0  0
   25.6300   25.1100   32.9400 O   0  0  0  0  0  0  0  0  0  0  0  0
   27.5200   26.3800   33.4600 C   0  0  0  0  0  0  0  0  0  0  0  0
   28.1600   26.6300   34.6100 N   0  0  0  0  0  0  0  0  0  0  0  0
   29.4800   26.8500   34.5700 N   0  0  0  0  0  0  0  0  0  0  0  0
   30.1900   26.7800   33.4400 C   0  0  0  0  0  0  0  0  0  0  0  0
   31.5600   27.0500   33.5000 C   0  0  0  0  0  0  0  0  0  0  0  0
   32.2700   27.2400   32.3100 C   0  0  0  0  0  0  0  0  0  0  0  0
   31.6100   27.2500   31.0800 C   0  0  0  0  0  0  0  0  0  0  0  0
   30.2700   26.8700   31.0600 C   0  0  0  0  0  0  0  0  0  0  0  0
   29.5100   26.6900   32.2300 C   0  0  0  0  0  0  0  0  0  0  0  0
   28.1400   26.4100   32.2000 C   0  0  0  0  0  0  0  0  0  0  0  0
   27.4300   26.1300   31.0500 N   0  0  0  0  0  0  0  0  0  0  0  0
   27.5662   24.8092   30.4205 C   0  0  0  0  0  0  0  0  0  0  0  0
   26.5454   24.6173   29.2936 C   0  0  0  0  0  0  0  0  0  0  0  0
   26.5229   25.7897   28.4041 N   0  0  0  0  0  0  0  0  0  0  0  0
   26.2511   25.6264   26.9945 C   0  0  0  0  0  0  0  0  0  0  0  0
   25.3696   24.6339   26.5384 C   0  0  0  0  0  0  0  0  0  0  0  0
   25.1111   24.4903   25.1746 C   0  0  0  0  0  0  0  0  0  0  0  0
   25.7379   25.3477   24.2513 C   0  0  0  0  0  0  0  0  0  0  0  0
   25.5031   25.2390   22.8268 N   0  0  0  0  0  0  0  0  0  0  0  0
   26.1877   26.1674   21.9197 C   0  0  0  0  0  0  0  0  0  0  0  0
   24.5979   24.2215   22.2782 C   0  0  0  0  0  0  0  0  0  0  0  0
   26.5873   26.3050   24.7206 N   0  0  0  0  0  0  0  0  0  0  0  0
   26.8530   26.4649   26.0435 C   0  0  0  0  0  0  0  0  0  0  0  0
   26.6295   27.1469   28.9669 C   0  0  0  0  0  0  0  0  0  0  0  0
   26.5202   27.1359   30.4935 C   0  0  0  0  0  0  0  0  0  0  0  0
  1  2  1  0
  2  3  2  0
  2  4  1  0
  4  5  2  0
  5  6  1  0
  6  7  2  0
  7  8  1  0
  8  9  2  0
  9 10  1  0
 10 11  2  0
 11 12  1  0
 12 13  2  0
 13 14  1  0
 14 15  1  0
 15 16  1  0
 16 17  1  0
 17 18  1  0
 18 19  2  0
 19 20  1  0
 20 21  2  0
 21 22  1  0
 22 23  1  0
 22 24  1  0
 21 25  1  0
 25 26  2  0
 17 27  1  0
 27 28  1  0
 13  4  1  0
 28 14  1  0
 12  7  1  0
 26 18  1  0
M  END
>  <AAScore>  (1) 
4.004267063940547

>  <RootName>  (1) 
./4ZLY/04_DeltaGEst/trajectory_03/rank_01/lead_0272

$$$$
