confid_15
     RDKit          3D

 27 30  0  0  0  0  0  0  0  0999 V2000
   24.4800   26.1000   36.1300 N   0  0  0  0  0  0  0  0  0  0  0  0
   25.2500   26.2500   34.9900 C   0  0  0  0  0  0  0  0  0  0  0  0
   24.7400   25.7600   33.9900 O   0  0  0  0  0  0  0  0  0  0  0  0
   26.5900   26.8900   34.9600 C   0  0  0  0  0  0  0  0  0  0  0  0
   27.0600   27.2400   36.1600 N   0  0  0  0  0  0  0  0  0  0  0  0
   28.3000   27.7100   36.2400 N   0  0  0  0  0  0  0  0  0  0  0  0
   29.0500   27.9600   35.1500 C   0  0  0  0  0  0  0  0  0  0  0  0
   30.3400   28.4900   35.2600 C   0  0  0  0  0  0  0  0  0  0  0  0
   31.1100   28.8200   34.1400 C   0  0  0  0  0  0  0  0  0  0  0  0
   30.5200   28.6700   32.8800 C   0  0  0  0  0  0  0  0  0  0  0  0
   29.2900   28.0200   32.7700 C   0  0  0  0  0  0  0  0  0  0  0  0
   28.5200   27.7100   33.8900 C   0  0  0  0  0  0  0  0  0  0  0  0
   27.2700   27.0800   33.7600 C   0  0  0  0  0  0  0  0  0  0  0  0
   26.7500   26.8800   32.4900 N   0  0  0  0  0  0  0  0  0  0  0  0
   23.0384   26.1360   36.1535 C   0  0  0  0  0  0  0  0  0  0  0  0
   22.3417   26.5416   35.0453 N   0  0  0  0  0  0  0  0  0  0  0  0
   20.9823   26.6432   35.0342 C   0  0  0  0  0  0  0  0  0  0  0  0
   20.2799   26.3249   36.1907 C   0  0  0  0  0  0  0  0  0  0  0  0
   18.8185   26.3345   36.4078 C   0  0  0  0  0  0  0  0  0  0  0  0
   18.6257   25.6156   37.6852 N   0  0  0  0  0  0  0  0  0  0  0  0
   17.5682   26.2037   38.5289 C   0  0  0  0  0  0  0  0  0  0  0  0
   16.1883   25.9977   37.9043 C   0  0  0  0  0  0  0  0  0  0  0  0
   19.9399   25.6209   38.3726 C   0  0  0  0  0  0  0  0  0  0  0  0
   20.9342   25.9389   37.3192 C   0  0  0  0  0  0  0  0  0  0  0  0
   22.3383   25.8432   37.3473 C   0  0  0  0  0  0  0  0  0  0  0  0
   23.0548   25.4590   38.4910 O   0  0  0  0  0  0  0  0  0  0  0  0
   22.8025   25.9784   39.7976 C   0  0  0  0  0  0  0  0  0  0  0  0
  1  2  1  0
  2  3  2  0
  2  4  1  0
  4  5  2  0
  5  6  1  0
  6  7  2  0
  7  8  1  0
  8  9  2  0
  9 10  1  0
 10 11  2  0
 11 12  1  0
 12 13  2  0
 13 14  1  0
  1 15  1  0
 15 16  2  0
 16 17  1  0
 17 18  2  0
 18 19  1  0
 19 20  1  0
 20 21  1  0
 21 22  1  0
 20 23  1  0
 23 24  1  0
 24 25  2  0
 25 26  1  0
 26 27  1  0
 13  4  1  0
 25 15  1  0
 12  7  1  0
 24 18  1  0
M  END
>  <AAScore>  (1) 
823.2454773334398

>  <RootName>  (1) 
./4ZLY/04_DeltaGEst/trajectory_00/rank_00/lead_0288

$$$$
