confid_0
     RDKit          3D

 27 30  0  0  0  0  0  0  0  0999 V2000
   24.4800   26.1000   36.1300 N   0  0  0  0  0  0  0  0  0  0  0  0
   25.2500   26.2500   34.9900 C   0  0  0  0  0  0  0  0  0  0  0  0
   24.7400   25.7600   33.9900 O   0  0  0  0  0  0  0  0  0  0  0  0
   26.5900   26.8900   34.9600 C   0  0  0  0  0  0  0  0  0  0  0  0
   27.0600   27.2400   36.1600 N   0  0  0  0  0  0  0  0  0  0  0  0
   28.3000   27.7100   36.2400 N   0  0  0  0  0  0  0  0  0  0  0  0
   29.0500   27.9600   35.1500 C   0  0  0  0  0  0  0  0  0  0  0  0
   30.3400   28.4900   35.2600 C   0  0  0  0  0  0  0  0  0  0  0  0
   31.1100   28.8200   34.1400 C   0  0  0  0  0  0  0  0  0  0  0  0
   30.5200   28.6700   32.8800 C   0  0  0  0  0  0  0  0  0  0  0  0
   29.2900   28.0200   32.7700 C   0  0  0  0  0  0  0  0  0  0  0  0
   28.5200   27.7100   33.8900 C   0  0  0  0  0  0  0  0  0  0  0  0
   27.2700   27.0800   33.7600 C   0  0  0  0  0  0  0  0  0  0  0  0
   26.7500   26.8800   32.4900 N   0  0  0  0  0  0  0  0  0  0  0  0
   23.4924   25.0711   36.3413 C   0  0  0  0  0  0  0  0  0  0  0  0
   23.3984   24.0082   35.4945 N   0  0  0  0  0  0  0  0  0  0  0  0
   22.4869   23.0139   35.6717 C   0  0  0  0  0  0  0  0  0  0  0  0
   22.4743   21.8462   34.7258 C   0  0  0  0  0  0  0  0  0  0  0  0
   21.1250   21.2808   34.5948 N   0  0  0  0  0  0  0  0  0  0  0  0
   20.2343   21.2734   35.7268 C   0  0  0  0  0  0  0  0  0  0  0  0
   19.1174   20.6918   35.6554 O   0  0  0  0  0  0  0  0  0  0  0  0
   20.6404   21.9260   37.0162 C   0  0  0  0  0  0  0  0  0  0  0  0
   21.6128   23.0518   36.7736 C   0  0  0  0  0  0  0  0  0  0  0  0
   21.7133   24.1214   37.6764 C   0  0  0  0  0  0  0  0  0  0  0  0
   20.9132   24.1815   38.7711 F   0  0  0  0  0  0  0  0  0  0  0  0
   22.6486   25.1343   37.4575 C   0  0  0  0  0  0  0  0  0  0  0  0
   20.7324   20.6049   33.3564 C   0  0  0  0  0  0  0  0  0  0  0  0
  1  2  1  0
  2  3  2  0
  2  4  1  0
  4  5  2  0
  5  6  1  0
  6  7  2  0
  7  8  1  0
  8  9  2  0
  9 10  1  0
 10 11  2  0
 11 12  1  0
 12 13  2  0
 13 14  1  0
  1 15  1  0
 15 16  2  0
 16 17  1  0
 17 18  1  0
 18 19  1  0
 19 20  1  0
 20 21  2  0
 20 22  1  0
 22 23  1  0
 23 24  1  0
 24 25  1  0
 24 26  2  0
 19 27  1  0
 13  4  1  0
 26 15  1  0
 12  7  1  0
 23 17  2  0
M  END
>  <AAScore>  (1) 
347.3180832714873

>  <RootName>  (1) 
./4ZLY/04_DeltaGEst/trajectory_00/rank_01/lead_0282

$$$$
