confid_19
     RDKit          3D

 27 29  0  0  0  0  0  0  0  0999 V2000
   24.5700   26.8800   35.5900 N   0  0  0  0  0  0  0  0  0  0  0  0
   25.5000   26.4000   34.6900 C   0  0  0  0  0  0  0  0  0  0  0  0
   25.1700   25.5200   33.9100 O   0  0  0  0  0  0  0  0  0  0  0  0
   26.8400   27.0200   34.7400 C   0  0  0  0  0  0  0  0  0  0  0  0
   27.3800   27.2800   35.9400 N   0  0  0  0  0  0  0  0  0  0  0  0
   28.6200   27.7400   36.0300 N   0  0  0  0  0  0  0  0  0  0  0  0
   29.3800   28.0000   34.9600 C   0  0  0  0  0  0  0  0  0  0  0  0
   30.6700   28.5000   35.1300 C   0  0  0  0  0  0  0  0  0  0  0  0
   31.5400   28.6100   34.0300 C   0  0  0  0  0  0  0  0  0  0  0  0
   31.0900   28.2200   32.7700 C   0  0  0  0  0  0  0  0  0  0  0  0
   29.8000   27.7000   32.6000 C   0  0  0  0  0  0  0  0  0  0  0  0
   28.9600   27.5500   33.7100 C   0  0  0  0  0  0  0  0  0  0  0  0
   27.6600   27.0300   33.5900 C   0  0  0  0  0  0  0  0  0  0  0  0
   27.1600   26.7400   32.3400 N   0  0  0  0  0  0  0  0  0  0  0  0
   33.1616   29.2674   34.2249 S   0  0  0  0  0  6  0  0  0  0  0  0
   34.1278   28.4430   33.4210 O   0  0  0  0  0  0  0  0  0  0  0  0
   33.5671   29.2075   35.6714 O   0  0  0  0  0  0  0  0  0  0  0  0
   33.1877   30.9647   33.6415 C   0  0  1  0  0  0  0  0  0  0  0  0
   32.2888   31.8919   34.4783 C   0  0  0  0  0  0  0  0  0  0  0  0
   33.1434   32.9152   35.1150 N   0  0  0  0  0  0  0  0  0  0  0  0
   34.3088   32.9980   34.2028 C   0  0  2  0  0  0  0  0  0  0  0  0
   34.5817   31.5774   33.7143 C   0  0  0  0  0  0  0  0  0  0  0  0
   35.5600   33.8643   34.6394 C   0  0  0  0  0  0  0  0  0  0  0  0
   36.4622   34.0750   33.3965 C   0  0  0  0  0  0  0  0  0  0  0  0
   36.4529   33.2302   35.7373 C   0  0  0  0  0  0  0  0  0  0  0  0
   35.0908   35.2610   35.1046 C   0  0  0  0  0  0  0  0  0  0  0  0
   33.4645   32.4970   36.4944 C   0  0  0  0  0  0  0  0  0  0  0  0
  1  2  1  0
  2  3  2  0
  2  4  1  0
  4  5  2  0
  5  6  1  0
  6  7  2  0
  7  8  1  0
  8  9  2  0
  9 10  1  0
 10 11  2  0
 11 12  1  0
 12 13  2  0
 13 14  1  0
  9 15  1  0
 15 16  2  0
 15 17  2  0
 18 15  1  1
 18 19  1  0
 19 20  1  0
 20 21  1  0
 21 22  1  0
 21 23  1  1
 23 24  1  0
 23 25  1  0
 23 26  1  0
 20 27  1  0
 13  4  1  0
 22 18  1  0
 12  7  1  0
M  END
>  <AAScore>  (1) 
-6.411396446454752

>  <RootName>  (1) 
./4ZLY/04_DeltaGEst/trajectory_05/rank_01/lead_0195

$$$$
