confid_12
     RDKit          3D

 28 31  0  0  0  0  0  0  0  0999 V2000
   24.4800   26.1000   36.1300 N   0  0  0  0  0  0  0  0  0  0  0  0
   25.2500   26.2500   34.9900 C   0  0  0  0  0  0  0  0  0  0  0  0
   24.7400   25.7600   33.9900 O   0  0  0  0  0  0  0  0  0  0  0  0
   26.5900   26.8900   34.9600 C   0  0  0  0  0  0  0  0  0  0  0  0
   27.0600   27.2400   36.1600 N   0  0  0  0  0  0  0  0  0  0  0  0
   28.3000   27.7100   36.2400 N   0  0  0  0  0  0  0  0  0  0  0  0
   29.0500   27.9600   35.1500 C   0  0  0  0  0  0  0  0  0  0  0  0
   30.3400   28.4900   35.2600 C   0  0  0  0  0  0  0  0  0  0  0  0
   31.1100   28.8200   34.1400 C   0  0  0  0  0  0  0  0  0  0  0  0
   30.5200   28.6700   32.8800 C   0  0  0  0  0  0  0  0  0  0  0  0
   29.2900   28.0200   32.7700 C   0  0  0  0  0  0  0  0  0  0  0  0
   28.5200   27.7100   33.8900 C   0  0  0  0  0  0  0  0  0  0  0  0
   27.2700   27.0800   33.7600 C   0  0  0  0  0  0  0  0  0  0  0  0
   26.7500   26.8800   32.4900 N   0  0  0  0  0  0  0  0  0  0  0  0
   23.5544   25.0237   36.3562 C   0  0  0  0  0  0  0  0  0  0  0  0
   22.5038   25.2424   37.0864 N   0  0  0  0  0  0  0  0  0  0  0  0
   21.5467   24.2214   37.3958 C   0  0  0  0  0  0  0  0  0  0  0  0
   21.5682   23.0278   36.7725 C   0  0  0  0  0  0  0  0  0  0  0  0
   20.4145   22.0684   36.9983 C   0  0  0  0  0  0  0  0  0  0  0  0
   19.9547   21.4797   35.7261 N   0  0  0  0  0  0  0  0  0  0  0  0
   18.6812   20.7571   35.8791 C   0  0  0  0  0  0  0  0  0  0  0  0
   18.8988   19.3988   36.5409 C   0  0  0  0  0  0  0  0  0  0  0  0
   19.7606   22.4846   34.8257 O   0  0  0  0  0  0  0  0  0  0  0  0
   20.7912   22.3670   33.8690 C   0  0  0  0  0  0  0  0  0  0  0  0
   22.0546   23.1369   34.3003 C   0  0  0  0  0  0  0  0  0  0  0  0
   22.6276   22.7494   35.6973 C   0  0  2  0  0  0  0  0  0  0  0  0
   23.0764   21.2660   35.7167 C   0  0  0  0  0  0  0  0  0  0  0  0
   23.8994   23.6038   35.9763 C   0  0  0  0  0  0  0  0  0  0  0  0
  1  2  1  0
  2  3  2  0
  2  4  1  0
  4  5  2  0
  5  6  1  0
  6  7  2  0
  7  8  1  0
  8  9  2  0
  9 10  1  0
 10 11  2  0
 11 12  1  0
 12 13  2  0
 13 14  1  0
  1 15  1  0
 15 16  2  0
 16 17  1  0
 17 18  2  0
 18 19  1  0
 19 20  1  0
 20 21  1  0
 21 22  1  0
 20 23  1  0
 23 24  1  0
 24 25  1  0
 25 26  1  0
 26 27  1  6
 26 28  1  0
 13  4  1  0
 28 15  1  0
 12  7  1  0
 26 18  1  0
M  END
>  <AAScore>  (1) 
1898.0189224963367

>  <RootName>  (1) 
./4ZLY/04_DeltaGEst/trajectory_00/rank_00/lead_0263

$$$$
