confid_1
     RDKit          3D

 27 30  0  0  0  0  0  0  0  0999 V2000
   25.3300   26.2600   34.7600 N   0  0  0  0  0  0  0  0  0  0  0  0
   26.1200   25.9200   33.6900 C   0  0  0  0  0  0  0  0  0  0  0  0
   25.6300   25.1100   32.9400 O   0  0  0  0  0  0  0  0  0  0  0  0
   27.5200   26.3800   33.4600 C   0  0  0  0  0  0  0  0  0  0  0  0
   28.1600   26.6300   34.6100 N   0  0  0  0  0  0  0  0  0  0  0  0
   29.4800   26.8500   34.5700 N   0  0  0  0  0  0  0  0  0  0  0  0
   30.1900   26.7800   33.4400 C   0  0  0  0  0  0  0  0  0  0  0  0
   31.5600   27.0500   33.5000 C   0  0  0  0  0  0  0  0  0  0  0  0
   32.2700   27.2400   32.3100 C   0  0  0  0  0  0  0  0  0  0  0  0
   31.6100   27.2500   31.0800 C   0  0  0  0  0  0  0  0  0  0  0  0
   30.2700   26.8700   31.0600 C   0  0  0  0  0  0  0  0  0  0  0  0
   29.5100   26.6900   32.2300 C   0  0  0  0  0  0  0  0  0  0  0  0
   28.1400   26.4100   32.2000 C   0  0  0  0  0  0  0  0  0  0  0  0
   27.4300   26.1300   31.0500 N   0  0  0  0  0  0  0  0  0  0  0  0
   26.4737   27.1107   30.5225 C   0  0  0  0  0  0  0  0  0  0  0  0
   26.6006   27.2560   28.9895 C   0  0  0  0  0  0  0  0  0  0  0  0
   27.3352   26.1373   28.3528 N   0  0  0  0  0  0  0  0  0  0  0  0
   27.0703   26.1083   26.9009 C   0  0  0  0  0  0  0  0  0  0  0  0
   28.1448   25.3310   26.1882 C   0  0  0  0  0  0  0  0  0  0  0  0
   29.3236   25.7781   26.2116 O   0  0  0  0  0  0  0  0  0  0  0  0
   27.8675   24.0971   25.4989 N   0  0  0  0  0  0  0  0  0  0  0  0
   28.8974   23.3393   24.8094 C   0  0  0  0  0  0  0  0  0  0  0  0
   28.1669   22.2244   24.0734 C   0  0  0  0  0  0  0  0  0  0  0  0
   26.7835   22.1385   24.7116 C   0  0  0  0  0  0  0  0  0  0  0  0
   26.5554   23.4792   25.3969 C   0  0  0  0  0  0  0  0  0  0  0  0
   26.9944   24.8511   28.9885 C   0  0  0  0  0  0  0  0  0  0  0  0
   27.5934   24.8259   30.3944 C   0  0  0  0  0  0  0  0  0  0  0  0
  1  2  1  0
  2  3  2  0
  2  4  1  0
  4  5  2  0
  5  6  1  0
  6  7  2  0
  7  8  1  0
  8  9  2  0
  9 10  1  0
 10 11  2  0
 11 12  1  0
 12 13  2  0
 13 14  1  0
 14 15  1  0
 15 16  1  0
 16 17  1  0
 17 18  1  0
 18 19  1  0
 19 20  2  0
 19 21  1  0
 21 22  1  0
 22 23  1  0
 23 24  1  0
 24 25  1  0
 17 26  1  0
 26 27  1  0
 13  4  1  0
 27 14  1  0
 12  7  1  0
 25 21  1  0
M  END
>  <AAScore>  (1) 
-2.4181617210103057

>  <RootName>  (1) 
./4ZLY/04_DeltaGEst/trajectory_03/rank_01/lead_0110

$$$$
