confid_3
     RDKit          3D

 32 35  0  0  0  0  0  0  0  0999 V2000
   24.5500   26.3900   36.2500 N   0  0  0  0  0  0  0  0  0  0  0  0
   25.6000   26.1300   35.4000 C   0  0  0  0  0  0  0  0  0  0  0  0
   25.4300   25.4300   34.4200 O   0  0  0  0  0  0  0  0  0  0  0  0
   26.9800   26.6300   35.7100 C   0  0  0  0  0  0  0  0  0  0  0  0
   27.3200   26.8200   36.9800 N   0  0  0  0  0  0  0  0  0  0  0  0
   28.4700   27.4000   37.3100 N   0  0  0  0  0  0  0  0  0  0  0  0
   29.4000   27.6300   36.3700 C   0  0  0  0  0  0  0  0  0  0  0  0
   30.6600   28.0500   36.8000 C   0  0  0  0  0  0  0  0  0  0  0  0
   31.5700   28.3600   35.7800 C   0  0  0  0  0  0  0  0  0  0  0  0
   31.3700   28.1000   34.4300 C   0  0  0  0  0  0  0  0  0  0  0  0
   30.1200   27.5900   34.0500 C   0  0  0  0  0  0  0  0  0  0  0  0
   29.1500   27.3400   35.0300 C   0  0  0  0  0  0  0  0  0  0  0  0
   27.8800   26.8900   34.6600 C   0  0  0  0  0  0  0  0  0  0  0  0
   27.4800   26.6100   33.3700 N   0  0  0  0  0  0  0  0  0  0  0  0
   23.1339   26.4476   35.8618 C   0  0  0  0  0  0  0  0  0  0  0  0
   22.5745   25.0736   35.5172 C   0  0  0  0  0  0  0  0  0  0  0  0
   21.0518   25.1548   35.3880 C   0  0  0  0  0  0  0  0  0  0  0  0
   20.5658   26.3532   34.6708 N   0  0  0  0  0  0  0  0  0  0  0  0
   19.1326   26.4617   34.4992 C   0  0  0  0  0  0  0  0  0  0  0  0
   18.3649   25.7961   35.2486 O   0  0  0  0  0  0  0  0  0  0  0  0
   18.5043   27.3005   33.4131 C   0  0  0  0  0  0  0  0  0  0  0  0
   18.1896   26.4606   32.2579 N   0  0  0  0  0  0  0  0  0  0  0  0
   16.9639   25.7953   32.0469 C   0  0  0  0  0  0  0  0  0  0  0  0
   15.9184   26.0289   32.7136 O   0  0  0  0  0  0  0  0  0  0  0  0
   17.0456   24.8356   31.0112 N   0  0  0  0  0  0  0  0  0  0  0  0
   15.9676   23.9836   30.4978 C   0  0  0  0  0  0  0  0  0  0  0  0
   15.4319   23.0664   31.6015 C   0  0  0  0  0  0  0  0  0  0  0  0
   14.8543   24.8419   29.8880 C   0  0  0  0  0  0  0  0  0  0  0  0
   18.4145   24.8379   30.5053 C   0  0  0  0  0  0  0  0  0  0  0  0
   19.1804   25.8861   31.3515 C   0  0  0  0  0  0  0  0  0  0  0  0
   21.4000   27.5401   34.3749 C   0  0  0  0  0  0  0  0  0  0  0  0
   22.9039   27.3805   34.6743 C   0  0  0  0  0  0  0  0  0  0  0  0
  1  2  1  0
  2  3  2  0
  2  4  1  0
  4  5  2  0
  5  6  1  0
  6  7  2  0
  7  8  1  0
  8  9  2  0
  9 10  1  0
 10 11  2  0
 11 12  1  0
 12 13  2  0
 13 14  1  0
  1 15  1  0
 15 16  1  0
 16 17  1  0
 17 18  1  0
 18 19  1  0
 19 20  2  0
 19 21  1  0
 21 22  1  0
 22 23  1  0
 23 24  2  0
 23 25  1  0
 25 26  1  0
 26 27  1  0
 26 28  1  0
 25 29  1  0
 29 30  1  0
 18 31  1  0
 31 32  1  0
 13  4  1  0
 32 15  1  0
 12  7  1  0
 30 22  1  0
M  END
>  <AAScore>  (1) 
1891.0344235100265

>  <RootName>  (1) 
./4ZLY/04_DeltaGEst/trajectory_01/rank_00/lead_0094

$$$$
