confid_8
     RDKit          3D

 29 32  0  0  0  0  0  0  0  0999 V2000
   24.6900   26.1200   35.5300 N   0  0  0  0  0  0  0  0  0  0  0  0
   25.6600   25.6700   34.6600 C   0  0  0  0  0  0  0  0  0  0  0  0
   25.2400   25.0100   33.7200 O   0  0  0  0  0  0  0  0  0  0  0  0
   27.0300   26.2200   34.8800 C   0  0  0  0  0  0  0  0  0  0  0  0
   27.3500   26.7300   36.0700 N   0  0  0  0  0  0  0  0  0  0  0  0
   28.5700   27.1800   36.3300 N   0  0  0  0  0  0  0  0  0  0  0  0
   29.5300   27.1100   35.3900 C   0  0  0  0  0  0  0  0  0  0  0  0
   30.8300   27.5700   35.6500 C   0  0  0  0  0  0  0  0  0  0  0  0
   31.8500   27.5400   34.6900 C   0  0  0  0  0  0  0  0  0  0  0  0
   31.5100   27.1200   33.4000 C   0  0  0  0  0  0  0  0  0  0  0  0
   30.2200   26.6300   33.1100 C   0  0  0  0  0  0  0  0  0  0  0  0
   29.2400   26.6600   34.1000 C   0  0  0  0  0  0  0  0  0  0  0  0
   27.9300   26.2600   33.8100 C   0  0  0  0  0  0  0  0  0  0  0  0
   27.5200   25.7100   32.6100 N   0  0  0  0  0  0  0  0  0  0  0  0
   31.1483   28.0600   36.9606 N   0  0  0  0  0  0  0  0  0  0  0  0
   31.3073   29.5123   37.1486 C   0  0  0  0  0  0  0  0  0  0  0  0
   31.8719   29.8665   38.5316 C   0  0  0  0  0  0  0  0  0  0  0  0
   31.2014   29.0554   39.6045 C   0  0  0  0  0  0  0  0  0  0  0  0
   30.8761   29.6217   40.8429 C   0  0  0  0  0  0  0  0  0  0  0  0
   30.2893   28.8415   41.8520 C   0  0  0  0  0  0  0  0  0  0  0  0
   29.9420   29.4481   43.1099 N   0  0  0  0  0  0  0  0  0  0  0  0
   28.5344   29.5214   43.5064 C   0  0  0  0  0  0  0  0  0  0  0  0
   30.9343   30.2417   43.8357 C   0  0  0  0  0  0  0  0  0  0  0  0
   30.0559   27.4701   41.6295 C   0  0  0  0  0  0  0  0  0  0  0  0
   30.3947   26.9048   40.3842 C   0  0  0  0  0  0  0  0  0  0  0  0
   30.9559   27.6959   39.3728 C   0  0  0  0  0  0  0  0  0  0  0  0
   31.3564   27.0963   38.0522 C   0  0  0  0  0  0  0  0  0  0  0  0
   29.5104   26.6984   42.6679 O   0  0  0  0  0  0  0  0  0  0  0  0
   29.2323   25.3047   42.5805 C   0  0  0  0  0  0  0  0  0  0  0  0
  1  2  1  0
  2  3  2  0
  2  4  1  0
  4  5  2  0
  5  6  1  0
  6  7  2  0
  7  8  1  0
  8  9  2  0
  9 10  1  0
 10 11  2  0
 11 12  1  0
 12 13  2  0
 13 14  1  0
  8 15  1  0
 15 16  1  0
 16 17  1  0
 17 18  1  0
 18 19  2  0
 19 20  1  0
 20 21  1  0
 21 22  1  0
 21 23  1  0
 20 24  2  0
 24 25  1  0
 25 26  2  0
 26 27  1  0
 24 28  1  0
 28 29  1  0
 13  4  1  0
 27 15  1  0
 12  7  1  0
 26 18  1  0
M  END
>  <AAScore>  (1) 
6.705843991535542

>  <RootName>  (1) 
./4ZLY/04_DeltaGEst/trajectory_02/rank_01/lead_0468

$$$$
