confid_8
     RDKit          3D

 27 30  0  0  0  0  0  0  0  0999 V2000
   24.6900   26.1200   35.5300 N   0  0  0  0  0  0  0  0  0  0  0  0
   25.6600   25.6700   34.6600 C   0  0  0  0  0  0  0  0  0  0  0  0
   25.2400   25.0100   33.7200 O   0  0  0  0  0  0  0  0  0  0  0  0
   27.0300   26.2200   34.8800 C   0  0  0  0  0  0  0  0  0  0  0  0
   27.3500   26.7300   36.0700 N   0  0  0  0  0  0  0  0  0  0  0  0
   28.5700   27.1800   36.3300 N   0  0  0  0  0  0  0  0  0  0  0  0
   29.5300   27.1100   35.3900 C   0  0  0  0  0  0  0  0  0  0  0  0
   30.8300   27.5700   35.6500 C   0  0  0  0  0  0  0  0  0  0  0  0
   31.8500   27.5400   34.6900 C   0  0  0  0  0  0  0  0  0  0  0  0
   31.5100   27.1200   33.4000 C   0  0  0  0  0  0  0  0  0  0  0  0
   30.2200   26.6300   33.1100 C   0  0  0  0  0  0  0  0  0  0  0  0
   29.2400   26.6600   34.1000 C   0  0  0  0  0  0  0  0  0  0  0  0
   27.9300   26.2600   33.8100 C   0  0  0  0  0  0  0  0  0  0  0  0
   27.5200   25.7100   32.6100 N   0  0  0  0  0  0  0  0  0  0  0  0
   31.1435   28.0669   36.9609 N   0  0  0  0  0  0  0  0  0  0  0  0
   32.1154   27.3494   37.7931 C   0  0  0  0  0  0  0  0  0  0  0  0
   32.0756   27.8627   39.2336 C   0  0  0  0  0  0  0  0  0  0  0  0
   30.6743   28.1406   39.6007 N   0  0  0  0  0  0  0  0  0  0  0  0
   30.5261   28.3275   41.0577 C   0  0  0  0  0  0  0  0  0  0  0  0
   30.5300   26.9949   41.7590 C   0  0  0  0  0  0  0  0  0  0  0  0
   29.4877   26.0828   41.5394 C   0  0  0  0  0  0  0  0  0  0  0  0
   29.5099   24.8441   42.1847 C   0  0  0  0  0  0  0  0  0  0  0  0
   30.5369   24.5271   43.0173 N   0  0  0  0  0  0  0  0  0  0  0  0
   31.5612   25.3913   43.2466 C   0  0  0  0  0  0  0  0  0  0  0  0
   31.5779   26.6407   42.6217 C   0  0  0  0  0  0  0  0  0  0  0  0
   30.1648   29.3248   38.8712 C   0  0  0  0  0  0  0  0  0  0  0  0
   30.6206   29.3668   37.3957 C   0  0  0  0  0  0  0  0  0  0  0  0
  1  2  1  0
  2  3  2  0
  2  4  1  0
  4  5  2  0
  5  6  1  0
  6  7  2  0
  7  8  1  0
  8  9  2  0
  9 10  1  0
 10 11  2  0
 11 12  1  0
 12 13  2  0
 13 14  1  0
  8 15  1  0
 15 16  1  0
 16 17  1  0
 17 18  1  0
 18 19  1  0
 19 20  1  0
 20 21  2  0
 21 22  1  0
 22 23  2  0
 23 24  1  0
 24 25  2  0
 18 26  1  0
 26 27  1  0
 13  4  1  0
 27 15  1  0
 12  7  1  0
 25 20  1  0
M  END
>  <AAScore>  (1) 
12.267566925622916

>  <RootName>  (1) 
./4ZLY/04_DeltaGEst/trajectory_02/rank_01/lead_0012

$$$$
