confid_2
     RDKit          3D

 28 31  0  0  0  0  0  0  0  0999 V2000
   24.5500   26.3900   36.2500 N   0  0  0  0  0  0  0  0  0  0  0  0
   25.6000   26.1300   35.4000 C   0  0  0  0  0  0  0  0  0  0  0  0
   25.4300   25.4300   34.4200 O   0  0  0  0  0  0  0  0  0  0  0  0
   26.9800   26.6300   35.7100 C   0  0  0  0  0  0  0  0  0  0  0  0
   27.3200   26.8200   36.9800 N   0  0  0  0  0  0  0  0  0  0  0  0
   28.4700   27.4000   37.3100 N   0  0  0  0  0  0  0  0  0  0  0  0
   29.4000   27.6300   36.3700 C   0  0  0  0  0  0  0  0  0  0  0  0
   30.6600   28.0500   36.8000 C   0  0  0  0  0  0  0  0  0  0  0  0
   31.5700   28.3600   35.7800 C   0  0  0  0  0  0  0  0  0  0  0  0
   31.3700   28.1000   34.4300 C   0  0  0  0  0  0  0  0  0  0  0  0
   30.1200   27.5900   34.0500 C   0  0  0  0  0  0  0  0  0  0  0  0
   29.1500   27.3400   35.0300 C   0  0  0  0  0  0  0  0  0  0  0  0
   27.8800   26.8900   34.6600 C   0  0  0  0  0  0  0  0  0  0  0  0
   27.4800   26.6100   33.3700 N   0  0  0  0  0  0  0  0  0  0  0  0
   30.9918   28.2830   38.2258 C   0  0  0  0  0  0  0  0  0  0  0  0
   31.0848   27.1764   39.0798 C   0  0  0  0  0  0  0  0  0  0  0  0
   31.4252   27.3350   40.4298 C   0  0  0  0  0  0  0  0  0  0  0  0
   31.4660   26.1252   41.3296 C   0  0  0  0  0  0  0  0  0  0  0  0
   32.3613   26.3242   42.4750 N   0  0  0  0  0  0  0  0  0  0  0  0
   32.9622   25.1666   43.1416 C   0  0  0  0  0  0  0  0  0  0  0  0
   32.4978   27.6327   43.0532 C   0  0  0  0  0  0  0  0  0  0  0  0
   33.0789   27.7753   44.1647 O   0  0  0  0  0  0  0  0  0  0  0  0
   31.9891   28.7783   42.3483 N   0  0  0  0  0  0  0  0  0  0  0  0
   31.6415   28.6246   40.9536 C   0  0  0  0  0  0  0  0  0  0  0  0
   31.5509   29.7362   40.0934 C   0  0  0  0  0  0  0  0  0  0  0  0
   31.2104   29.5806   38.7401 C   0  0  0  0  0  0  0  0  0  0  0  0
   31.1110   30.8031   37.8646 C   0  0  0  0  0  0  0  0  0  0  0  0
   31.9279   30.0837   43.0170 C   0  0  0  0  0  0  0  0  0  0  0  0
  1  2  1  0
  2  3  2  0
  2  4  1  0
  4  5  2  0
  5  6  1  0
  6  7  2  0
  7  8  1  0
  8  9  2  0
  9 10  1  0
 10 11  2  0
 11 12  1  0
 12 13  2  0
 13 14  1  0
  8 15  1  0
 15 16  2  0
 16 17  1  0
 17 18  1  0
 18 19  1  0
 19 20  1  0
 19 21  1  0
 21 22  2  0
 21 23  1  0
 23 24  1  0
 24 25  1  0
 25 26  2  0
 26 27  1  0
 23 28  1  0
 13  4  1  0
 26 15  1  0
 12  7  1  0
 24 17  2  0
M  END
>  <AAScore>  (1) 
351.25995198487425

>  <RootName>  (1) 
./4ZLY/04_DeltaGEst/trajectory_01/rank_01/lead_0177

$$$$
