confid_8
     RDKit          3D

 27 30  0  0  0  0  0  0  0  0999 V2000
   24.6900   26.1200   35.5300 N   0  0  0  0  0  0  0  0  0  0  0  0
   25.6600   25.6700   34.6600 C   0  0  0  0  0  0  0  0  0  0  0  0
   25.2400   25.0100   33.7200 O   0  0  0  0  0  0  0  0  0  0  0  0
   27.0300   26.2200   34.8800 C   0  0  0  0  0  0  0  0  0  0  0  0
   27.3500   26.7300   36.0700 N   0  0  0  0  0  0  0  0  0  0  0  0
   28.5700   27.1800   36.3300 N   0  0  0  0  0  0  0  0  0  0  0  0
   29.5300   27.1100   35.3900 C   0  0  0  0  0  0  0  0  0  0  0  0
   30.8300   27.5700   35.6500 C   0  0  0  0  0  0  0  0  0  0  0  0
   31.8500   27.5400   34.6900 C   0  0  0  0  0  0  0  0  0  0  0  0
   31.5100   27.1200   33.4000 C   0  0  0  0  0  0  0  0  0  0  0  0
   30.2200   26.6300   33.1100 C   0  0  0  0  0  0  0  0  0  0  0  0
   29.2400   26.6600   34.1000 C   0  0  0  0  0  0  0  0  0  0  0  0
   27.9300   26.2600   33.8100 C   0  0  0  0  0  0  0  0  0  0  0  0
   27.5200   25.7100   32.6100 N   0  0  0  0  0  0  0  0  0  0  0  0
   23.2893   26.2209   35.2126 C   0  0  0  0  0  0  0  0  0  0  0  0
   22.3712   25.9753   36.1864 N   0  0  0  0  0  0  0  0  0  0  0  0
   21.0344   26.0428   35.9539 C   0  0  0  0  0  0  0  0  0  0  0  0
   20.5529   26.3819   34.6817 C   0  0  0  0  0  0  0  0  0  0  0  0
   19.0721   26.3583   34.4022 C   0  0  0  0  0  0  0  0  0  0  0  0
   18.7031   27.2932   33.3292 N   0  0  0  0  0  0  0  0  0  0  0  0
   17.3272   27.7892   33.2458 C   0  0  0  0  0  0  0  0  0  0  0  0
   19.6320   27.5908   32.2684 C   0  0  0  0  0  0  0  0  0  0  0  0
   19.2956   28.3612   31.3268 O   0  0  0  0  0  0  0  0  0  0  0  0
   21.0024   26.9656   32.2528 C   0  0  1  0  0  0  0  0  0  0  0  0
   21.4758   26.6630   33.6562 C   0  0  0  0  0  0  0  0  0  0  0  0
   22.8507   26.5933   33.9307 C   0  0  0  0  0  0  0  0  0  0  0  0
   20.9832   25.6843   31.4142 C   0  0  0  0  0  0  0  0  0  0  0  0
  1  2  1  0
  2  3  2  0
  2  4  1  0
  4  5  2  0
  5  6  1  0
  6  7  2  0
  7  8  1  0
  8  9  2  0
  9 10  1  0
 10 11  2  0
 11 12  1  0
 12 13  2  0
 13 14  1  0
  1 15  1  0
 15 16  2  0
 16 17  1  0
 17 18  2  0
 18 19  1  0
 19 20  1  0
 20 21  1  0
 20 22  1  0
 22 23  2  0
 22 24  1  0
 24 25  1  0
 25 26  2  0
 24 27  1  6
 13  4  1  0
 26 15  1  0
 12  7  1  0
 25 18  1  0
M  END
>  <AAScore>  (1) 
449.2622167768512

>  <RootName>  (1) 
./4ZLY/04_DeltaGEst/trajectory_02/rank_00/lead_0377

$$$$
