confid_18
     RDKit          3D

 27 30  0  0  0  0  0  0  0  0999 V2000
   24.4800   26.1000   36.1300 N   0  0  0  0  0  0  0  0  0  0  0  0
   25.2500   26.2500   34.9900 C   0  0  0  0  0  0  0  0  0  0  0  0
   24.7400   25.7600   33.9900 O   0  0  0  0  0  0  0  0  0  0  0  0
   26.5900   26.8900   34.9600 C   0  0  0  0  0  0  0  0  0  0  0  0
   27.0600   27.2400   36.1600 N   0  0  0  0  0  0  0  0  0  0  0  0
   28.3000   27.7100   36.2400 N   0  0  0  0  0  0  0  0  0  0  0  0
   29.0500   27.9600   35.1500 C   0  0  0  0  0  0  0  0  0  0  0  0
   30.3400   28.4900   35.2600 C   0  0  0  0  0  0  0  0  0  0  0  0
   31.1100   28.8200   34.1400 C   0  0  0  0  0  0  0  0  0  0  0  0
   30.5200   28.6700   32.8800 C   0  0  0  0  0  0  0  0  0  0  0  0
   29.2900   28.0200   32.7700 C   0  0  0  0  0  0  0  0  0  0  0  0
   28.5200   27.7100   33.8900 C   0  0  0  0  0  0  0  0  0  0  0  0
   27.2700   27.0800   33.7600 C   0  0  0  0  0  0  0  0  0  0  0  0
   26.7500   26.8800   32.4900 N   0  0  0  0  0  0  0  0  0  0  0  0
   23.3457   25.2241   36.2444 C   0  0  0  0  0  0  0  0  0  0  0  0
   22.2291   25.7703   36.6677 N   0  0  0  0  0  0  0  0  0  0  0  0
   20.9147   25.2529   36.9311 C   0  0  0  0  0  0  0  0  0  0  0  0
   20.6679   23.9621   37.0273 C   0  0  0  0  0  0  0  0  0  0  0  0
   19.5282   22.9969   36.8876 C   0  0  0  0  0  0  0  0  0  0  0  0
   20.3481   21.8742   36.7902 O   0  0  0  0  0  0  0  0  0  0  0  0
   21.4477   22.7021   37.0230 C   0  0  2  0  0  0  0  0  0  0  0  0
   22.1015   22.4000   38.3917 C   0  0  0  0  0  0  0  0  0  0  0  0
   22.9578   21.2742   38.3055 O   0  0  0  0  0  0  0  0  0  0  0  0
   22.2774   20.1015   38.7013 C   0  0  0  0  0  0  0  0  0  0  0  0
   22.4177   22.8008   35.8847 C   0  0  0  0  0  0  0  0  0  0  0  0
   22.2660   22.1158   34.8839 O   0  0  0  0  0  0  0  0  0  0  0  0
   23.5998   23.7316   35.9939 C   0  0  0  0  0  0  0  0  0  0  0  0
  1  2  1  0
  2  3  2  0
  2  4  1  0
  4  5  2  0
  5  6  1  0
  6  7  2  0
  7  8  1  0
  8  9  2  0
  9 10  1  0
 10 11  2  0
 11 12  1  0
 12 13  2  0
 13 14  1  0
  1 15  1  0
 15 16  2  0
 16 17  1  0
 17 18  2  0
 18 19  1  0
 19 20  1  0
 20 21  1  0
 21 22  1  1
 22 23  1  0
 23 24  1  0
 21 25  1  0
 25 26  2  0
 25 27  1  0
 13  4  1  0
 27 15  1  0
 12  7  1  0
 21 18  1  0
M  END
>  <AAScore>  (1) 
1792.9489800290476

>  <RootName>  (1) 
./4ZLY/04_DeltaGEst/trajectory_00/rank_01/lead_0458

$$$$
