confid_14
     RDKit          3D

 28 31  0  0  0  0  0  0  0  0999 V2000
   24.6900   26.1200   35.5300 N   0  0  0  0  0  0  0  0  0  0  0  0
   25.6600   25.6700   34.6600 C   0  0  0  0  0  0  0  0  0  0  0  0
   25.2400   25.0100   33.7200 O   0  0  0  0  0  0  0  0  0  0  0  0
   27.0300   26.2200   34.8800 C   0  0  0  0  0  0  0  0  0  0  0  0
   27.3500   26.7300   36.0700 N   0  0  0  0  0  0  0  0  0  0  0  0
   28.5700   27.1800   36.3300 N   0  0  0  0  0  0  0  0  0  0  0  0
   29.5300   27.1100   35.3900 C   0  0  0  0  0  0  0  0  0  0  0  0
   30.8300   27.5700   35.6500 C   0  0  0  0  0  0  0  0  0  0  0  0
   31.8500   27.5400   34.6900 C   0  0  0  0  0  0  0  0  0  0  0  0
   31.5100   27.1200   33.4000 C   0  0  0  0  0  0  0  0  0  0  0  0
   30.2200   26.6300   33.1100 C   0  0  0  0  0  0  0  0  0  0  0  0
   29.2400   26.6600   34.1000 C   0  0  0  0  0  0  0  0  0  0  0  0
   27.9300   26.2600   33.8100 C   0  0  0  0  0  0  0  0  0  0  0  0
   27.5200   25.7100   32.6100 N   0  0  0  0  0  0  0  0  0  0  0  0
   23.2860   26.2608   35.2370 C   0  0  0  0  0  0  0  0  0  0  0  0
   22.3888   26.2164   36.2948 N   0  0  0  0  0  0  0  0  0  0  0  0
   21.0314   26.3639   36.1552 C   0  0  0  0  0  0  0  0  0  0  0  0
   20.5778   26.5686   34.8745 C   0  0  0  0  0  0  0  0  0  0  0  0
   19.5092   26.7746   33.9450 C   0  0  0  0  0  0  0  0  0  0  0  0
   20.3705   26.8421   32.8221 N   0  0  0  0  0  0  0  0  0  0  0  0
   20.2308   26.9742   31.3801 C   0  0  0  0  0  0  0  0  0  0  0  0
   20.8028   25.7243   30.6885 C   0  0  0  0  0  0  0  0  0  0  0  0
   20.5948   25.6975   29.2229 N   0  0  0  0  0  0  0  0  0  0  0  0
   21.2876   26.8053   28.5316 C   0  0  0  0  0  0  0  0  0  0  0  0
   21.5592   26.4477   27.0718 C   0  0  0  0  0  0  0  0  0  0  0  0
   19.1669   25.6165   28.8611 C   0  0  0  0  0  0  0  0  0  0  0  0
   21.4527   26.6330   33.7845 C   0  0  0  0  0  0  0  0  0  0  0  0
   22.8200   26.4996   33.9065 C   0  0  0  0  0  0  0  0  0  0  0  0
  1  2  1  0
  2  3  2  0
  2  4  1  0
  4  5  2  0
  5  6  1  0
  6  7  2  0
  7  8  1  0
  8  9  2  0
  9 10  1  0
 10 11  2  0
 11 12  1  0
 12 13  2  0
 13 14  1  0
  1 15  1  0
 15 16  2  0
 16 17  1  0
 17 18  2  0
 18 19  1  0
 19 20  1  0
 20 21  1  0
 21 22  1  0
 22 23  1  0
 23 24  1  0
 24 25  1  0
 23 26  1  0
 20 27  1  0
 27 28  2  0
 13  4  1  0
 28 15  1  0
 12  7  1  0
 27 18  1  0
M  END
>  <AAScore>  (1) 
159.48410018743024

>  <RootName>  (1) 
./4ZLY/04_DeltaGEst/trajectory_02/rank_00/lead_0165

$$$$
