confid_12
     RDKit          3D

 27 30  0  0  0  0  0  0  0  0999 V2000
   24.5500   26.3900   36.2500 N   0  0  0  0  0  0  0  0  0  0  0  0
   25.6000   26.1300   35.4000 C   0  0  0  0  0  0  0  0  0  0  0  0
   25.4300   25.4300   34.4200 O   0  0  0  0  0  0  0  0  0  0  0  0
   26.9800   26.6300   35.7100 C   0  0  0  0  0  0  0  0  0  0  0  0
   27.3200   26.8200   36.9800 N   0  0  0  0  0  0  0  0  0  0  0  0
   28.4700   27.4000   37.3100 N   0  0  0  0  0  0  0  0  0  0  0  0
   29.4000   27.6300   36.3700 C   0  0  0  0  0  0  0  0  0  0  0  0
   30.6600   28.0500   36.8000 C   0  0  0  0  0  0  0  0  0  0  0  0
   31.5700   28.3600   35.7800 C   0  0  0  0  0  0  0  0  0  0  0  0
   31.3700   28.1000   34.4300 C   0  0  0  0  0  0  0  0  0  0  0  0
   30.1200   27.5900   34.0500 C   0  0  0  0  0  0  0  0  0  0  0  0
   29.1500   27.3400   35.0300 C   0  0  0  0  0  0  0  0  0  0  0  0
   27.8800   26.8900   34.6600 C   0  0  0  0  0  0  0  0  0  0  0  0
   27.4800   26.6100   33.3700 N   0  0  0  0  0  0  0  0  0  0  0  0
   31.0364   28.2597   38.2223 C   0  0  0  0  0  0  0  0  0  0  0  0
   32.2893   28.0416   38.7627 C   0  0  0  0  0  0  0  0  0  0  0  0
   32.1927   28.3267   40.1116 C   0  0  0  0  0  0  0  0  0  0  0  0
   33.3605   28.2547   41.0568 C   0  0  0  0  0  0  0  0  0  0  0  0
   32.9836   27.5959   42.3097 N   0  0  0  0  0  0  0  0  0  0  0  0
   32.1158   28.2767   43.2337 C   0  0  0  0  0  0  0  0  0  0  0  0
   31.9856   27.8524   44.4133 O   0  0  0  0  0  0  0  0  0  0  0  0
   31.3181   29.4675   42.7917 C   0  0  0  0  0  0  0  0  0  0  0  0
   30.3182   29.0648   41.7060 C   0  0  0  0  0  0  0  0  0  0  0  0
   30.9373   28.7540   40.4083 N   0  0  0  0  0  0  0  0  0  0  0  0
   30.2316   28.6985   39.2596 C   0  0  0  0  0  0  0  0  0  0  0  0
   33.4555   26.2348   42.6020 C   0  0  0  0  0  0  0  0  0  0  0  0
   32.3668   25.2180   42.2702 C   0  0  0  0  0  0  0  0  0  0  0  0
  1  2  1  0
  2  3  2  0
  2  4  1  0
  4  5  2  0
  5  6  1  0
  6  7  2  0
  7  8  1  0
  8  9  2  0
  9 10  1  0
 10 11  2  0
 11 12  1  0
 12 13  2  0
 13 14  1  0
  8 15  1  0
 15 16  1  0
 16 17  2  0
 17 18  1  0
 18 19  1  0
 19 20  1  0
 20 21  2  0
 20 22  1  0
 22 23  1  0
 23 24  1  0
 24 25  1  0
 19 26  1  0
 26 27  1  0
 13  4  1  0
 25 15  2  0
 12  7  1  0
 24 17  1  0
M  END
>  <AAScore>  (1) 
1098.7543202565168

>  <RootName>  (1) 
./4ZLY/04_DeltaGEst/trajectory_01/rank_01/lead_0348

$$$$
