confid_4
     RDKit          3D

 28 30  0  0  0  0  0  0  0  0999 V2000
   24.5500   26.3900   36.2500 N   0  0  0  0  0  0  0  0  0  0  0  0
   25.6000   26.1300   35.4000 C   0  0  0  0  0  0  0  0  0  0  0  0
   25.4300   25.4300   34.4200 O   0  0  0  0  0  0  0  0  0  0  0  0
   26.9800   26.6300   35.7100 C   0  0  0  0  0  0  0  0  0  0  0  0
   27.3200   26.8200   36.9800 N   0  0  0  0  0  0  0  0  0  0  0  0
   28.4700   27.4000   37.3100 N   0  0  0  0  0  0  0  0  0  0  0  0
   29.4000   27.6300   36.3700 C   0  0  0  0  0  0  0  0  0  0  0  0
   30.6600   28.0500   36.8000 C   0  0  0  0  0  0  0  0  0  0  0  0
   31.5700   28.3600   35.7800 C   0  0  0  0  0  0  0  0  0  0  0  0
   31.3700   28.1000   34.4300 C   0  0  0  0  0  0  0  0  0  0  0  0
   30.1200   27.5900   34.0500 C   0  0  0  0  0  0  0  0  0  0  0  0
   29.1500   27.3400   35.0300 C   0  0  0  0  0  0  0  0  0  0  0  0
   27.8800   26.8900   34.6600 C   0  0  0  0  0  0  0  0  0  0  0  0
   27.4800   26.6100   33.3700 N   0  0  0  0  0  0  0  0  0  0  0  0
   23.2408   25.7278   36.1345 C   0  0  0  0  0  0  0  0  0  0  0  0
   22.1658   26.4949   36.9450 C   0  0  0  0  0  0  0  0  0  0  0  0
   21.9526   25.9446   38.3699 C   0  0  0  0  0  0  0  0  0  0  0  0
   23.1681   25.2906   38.8820 N   0  0  0  0  0  0  0  0  0  0  0  0
   23.6956   25.6366   40.1838 C   0  0  0  0  0  0  0  0  0  0  0  0
   23.3106   26.6959   40.7522 O   0  0  0  0  0  0  0  0  0  0  0  0
   24.7646   24.7971   40.8445 C   0  0  0  0  0  0  0  0  0  0  0  0
   24.7666   24.9439   42.3720 C   0  0  0  0  0  0  0  0  0  0  0  0
   25.7369   24.0286   42.9708 N   0  0  0  0  0  0  0  0  0  0  0  0
   27.1515   24.2623   42.9228 C   0  0  0  0  0  0  0  0  0  0  0  0
   27.6091   25.3078   42.3864 O   0  0  0  0  0  0  0  0  0  0  0  0
   28.0896   23.2847   43.5517 C   0  0  0  0  0  0  0  0  0  0  0  0
   23.7893   24.2186   38.0835 C   0  0  0  0  0  0  0  0  0  0  0  0
   23.3402   24.2698   36.6152 C   0  0  0  0  0  0  0  0  0  0  0  0
  1  2  1  0
  2  3  2  0
  2  4  1  0
  4  5  2  0
  5  6  1  0
  6  7  2  0
  7  8  1  0
  8  9  2  0
  9 10  1  0
 10 11  2  0
 11 12  1  0
 12 13  2  0
 13 14  1  0
  1 15  1  0
 15 16  1  0
 16 17  1  0
 17 18  1  0
 18 19  1  0
 19 20  2  0
 19 21  1  0
 21 22  1  0
 22 23  1  0
 23 24  1  0
 24 25  2  0
 24 26  1  0
 18 27  1  0
 27 28  1  0
 13  4  1  0
 28 15  1  0
 12  7  1  0
M  END
>  <AAScore>  (1) 
325.30876212742726

>  <RootName>  (1) 
./4ZLY/04_DeltaGEst/trajectory_01/rank_00/lead_0044

$$$$
