confid_6
     RDKit          3D

 29 32  0  0  0  0  0  0  0  0999 V2000
   24.5500   26.3900   36.2500 N   0  0  0  0  0  0  0  0  0  0  0  0
   25.6000   26.1300   35.4000 C   0  0  0  0  0  0  0  0  0  0  0  0
   25.4300   25.4300   34.4200 O   0  0  0  0  0  0  0  0  0  0  0  0
   26.9800   26.6300   35.7100 C   0  0  0  0  0  0  0  0  0  0  0  0
   27.3200   26.8200   36.9800 N   0  0  0  0  0  0  0  0  0  0  0  0
   28.4700   27.4000   37.3100 N   0  0  0  0  0  0  0  0  0  0  0  0
   29.4000   27.6300   36.3700 C   0  0  0  0  0  0  0  0  0  0  0  0
   30.6600   28.0500   36.8000 C   0  0  0  0  0  0  0  0  0  0  0  0
   31.5700   28.3600   35.7800 C   0  0  0  0  0  0  0  0  0  0  0  0
   31.3700   28.1000   34.4300 C   0  0  0  0  0  0  0  0  0  0  0  0
   30.1200   27.5900   34.0500 C   0  0  0  0  0  0  0  0  0  0  0  0
   29.1500   27.3400   35.0300 C   0  0  0  0  0  0  0  0  0  0  0  0
   27.8800   26.8900   34.6600 C   0  0  0  0  0  0  0  0  0  0  0  0
   27.4800   26.6100   33.3700 N   0  0  0  0  0  0  0  0  0  0  0  0
   30.9593   28.3174   38.1764 N   0  0  0  0  0  0  0  0  0  0  0  0
   30.3758   29.4969   38.8324 C   0  0  0  0  0  0  0  0  0  0  0  0
   30.3899   29.3373   40.3562 C   0  0  0  0  0  0  0  0  0  0  0  0
   30.0516   27.9504   40.7066 N   0  0  0  0  0  0  0  0  0  0  0  0
   28.8466   27.6454   41.4327 C   0  0  0  0  0  0  0  0  0  0  0  0
   28.8673   26.7089   42.4755 C   0  0  0  0  0  0  0  0  0  0  0  0
   27.6798   26.3829   43.1324 C   0  0  0  0  0  0  0  0  0  0  0  0
   26.5100   26.9605   42.7531 N   0  0  0  0  0  0  0  0  0  0  0  0
   26.4500   27.8758   41.7450 C   0  0  0  0  0  0  0  0  0  0  0  0
   25.1163   28.4433   41.3203 C   0  0  0  0  0  0  0  0  0  0  0  0
   24.3025   27.3773   40.5803 C   0  0  0  0  0  0  0  0  0  0  0  0
   24.3409   28.9841   42.5270 C   0  0  0  0  0  0  0  0  0  0  0  0
   27.6246   28.2276   41.0626 C   0  0  0  0  0  0  0  0  0  0  0  0
   30.8369   26.8458   40.1311 C   0  0  0  0  0  0  0  0  0  0  0  0
   31.7045   27.3284   38.9615 C   0  0  0  0  0  0  0  0  0  0  0  0
  1  2  1  0
  2  3  2  0
  2  4  1  0
  4  5  2  0
  5  6  1  0
  6  7  2  0
  7  8  1  0
  8  9  2  0
  9 10  1  0
 10 11  2  0
 11 12  1  0
 12 13  2  0
 13 14  1  0
  8 15  1  0
 15 16  1  0
 16 17  1  0
 17 18  1  0
 18 19  1  0
 19 20  2  0
 20 21  1  0
 21 22  2  0
 22 23  1  0
 23 24  1  0
 24 25  1  0
 24 26  1  0
 23 27  2  0
 18 28  1  0
 28 29  1  0
 13  4  1  0
 29 15  1  0
 12  7  1  0
 27 19  1  0
M  END
>  <AAScore>  (1) 
50.978393149262295

>  <RootName>  (1) 
./4ZLY/04_DeltaGEst/trajectory_01/rank_01/lead_0150

$$$$
