confid_2
     RDKit          3D

 27 30  0  0  0  0  0  0  0  0999 V2000
   24.2000   26.2400   35.6900 N   0  0  0  0  0  0  0  0  0  0  0  0
   24.8500   26.2800   34.4800 C   0  0  0  0  0  0  0  0  0  0  0  0
   24.3100   25.7400   33.5400 O   0  0  0  0  0  0  0  0  0  0  0  0
   26.1800   26.9700   34.4700 C   0  0  0  0  0  0  0  0  0  0  0  0
   26.6500   27.6000   35.5500 N   0  0  0  0  0  0  0  0  0  0  0  0
   27.7900   28.2700   35.6200 N   0  0  0  0  0  0  0  0  0  0  0  0
   28.5400   28.3000   34.5100 C   0  0  0  0  0  0  0  0  0  0  0  0
   29.7700   28.9400   34.5600 C   0  0  0  0  0  0  0  0  0  0  0  0
   30.7000   28.8900   33.5000 C   0  0  0  0  0  0  0  0  0  0  0  0
   30.3700   28.1400   32.3700 C   0  0  0  0  0  0  0  0  0  0  0  0
   29.1200   27.5200   32.2800 C   0  0  0  0  0  0  0  0  0  0  0  0
   28.2100   27.6100   33.3300 C   0  0  0  0  0  0  0  0  0  0  0  0
   26.9700   26.9700   33.3100 C   0  0  0  0  0  0  0  0  0  0  0  0
   26.5300   26.2400   32.2200 N   0  0  0  0  0  0  0  0  0  0  0  0
   30.1429   29.6582   35.7475 N   0  0  0  0  0  0  0  0  0  0  0  0
   30.7247   28.9246   36.8738 C   0  0  0  0  0  0  0  0  0  0  0  0
   30.3692   29.6075   38.1956 C   0  0  0  0  0  0  0  0  0  0  0  0
   30.7396   31.0729   38.1697 C   0  0  0  0  0  0  0  0  0  0  0  0
   31.1162   31.7190   39.3601 C   0  0  0  0  0  0  0  0  0  0  0  0
   31.4135   33.0807   39.3568 C   0  0  0  0  0  0  0  0  0  0  0  0
   31.3299   33.8143   38.1755 C   0  0  0  0  0  0  0  0  0  0  0  0
   30.9366   33.2000   36.9818 C   0  0  0  0  0  0  0  0  0  0  0  0
   30.8972   34.2091   35.5378 Cl  0  0  0  0  0  0  0  0  0  0  0  0
   30.6209   31.8173   36.9704 C   0  0  0  0  0  0  0  0  0  0  0  0
   30.1778   31.0969   35.7462 C   0  0  0  0  0  0  0  0  0  0  0  0
   29.7934   31.7284   34.7248 O   0  0  0  0  0  0  0  0  0  0  0  0
   31.1912   31.0317   40.5284 F   0  0  0  0  0  0  0  0  0  0  0  0
  1  2  1  0
  2  3  2  0
  2  4  1  0
  4  5  2  0
  5  6  1  0
  6  7  2  0
  7  8  1  0
  8  9  2  0
  9 10  1  0
 10 11  2  0
 11 12  1  0
 12 13  2  0
 13 14  1  0
  8 15  1  0
 15 16  1  0
 16 17  1  0
 17 18  1  0
 18 19  2  0
 19 20  1  0
 20 21  2  0
 21 22  1  0
 22 23  1  0
 22 24  2  0
 24 25  1  0
 25 26  2  0
 19 27  1  0
 13  4  1  0
 25 15  1  0
 12  7  1  0
 24 18  1  0
M  END
>  <AAScore>  (1) 
-8.021056837304728

>  <RootName>  (1) 
./4ZLY/04_DeltaGEst/trajectory_04/rank_01/lead_0152

$$$$
