confid_19
     RDKit          3D

 29 32  0  0  0  0  0  0  0  0999 V2000
   25.3300   26.2600   34.7600 N   0  0  0  0  0  0  0  0  0  0  0  0
   26.1200   25.9200   33.6900 C   0  0  0  0  0  0  0  0  0  0  0  0
   25.6300   25.1100   32.9400 O   0  0  0  0  0  0  0  0  0  0  0  0
   27.5200   26.3800   33.4600 C   0  0  0  0  0  0  0  0  0  0  0  0
   28.1600   26.6300   34.6100 N   0  0  0  0  0  0  0  0  0  0  0  0
   29.4800   26.8500   34.5700 N   0  0  0  0  0  0  0  0  0  0  0  0
   30.1900   26.7800   33.4400 C   0  0  0  0  0  0  0  0  0  0  0  0
   31.5600   27.0500   33.5000 C   0  0  0  0  0  0  0  0  0  0  0  0
   32.2700   27.2400   32.3100 C   0  0  0  0  0  0  0  0  0  0  0  0
   31.6100   27.2500   31.0800 C   0  0  0  0  0  0  0  0  0  0  0  0
   30.2700   26.8700   31.0600 C   0  0  0  0  0  0  0  0  0  0  0  0
   29.5100   26.6900   32.2300 C   0  0  0  0  0  0  0  0  0  0  0  0
   28.1400   26.4100   32.2000 C   0  0  0  0  0  0  0  0  0  0  0  0
   27.4300   26.1300   31.0500 N   0  0  0  0  0  0  0  0  0  0  0  0
   26.5289   27.1412   30.4887 C   0  0  0  0  0  0  0  0  0  0  0  0
   26.6893   27.1855   28.9678 C   0  0  0  0  0  0  0  0  0  0  0  0
   26.6094   25.8395   28.3765 N   0  0  0  0  0  0  0  0  0  0  0  0
   26.2411   25.6947   26.9914 C   0  0  0  0  0  0  0  0  0  0  0  0
   25.2845   24.8247   26.5078 C   0  0  0  0  0  0  0  0  0  0  0  0
   25.2689   25.0613   25.1406 C   0  0  0  0  0  0  0  0  0  0  0  0
   24.3526   24.3917   24.1307 C   0  0  0  0  0  0  0  0  0  0  0  0
   24.7075   24.8391   22.6974 C   0  0  0  0  0  0  0  0  0  0  0  0
   24.5073   22.8611   24.2272 C   0  0  0  0  0  0  0  0  0  0  0  0
   22.8936   24.7839   24.4325 C   0  0  0  0  0  0  0  0  0  0  0  0
   26.1720   26.0203   24.8374 N   0  0  0  0  0  0  0  0  0  0  0  0
   26.7637   26.3941   25.9609 N   0  0  0  0  0  0  0  0  0  0  0  0
   27.8374   27.3803   26.0040 C   0  0  0  0  0  0  0  0  0  0  0  0
   26.5937   24.6514   29.2423 C   0  0  0  0  0  0  0  0  0  0  0  0
   27.5752   24.8157   30.4084 C   0  0  0  0  0  0  0  0  0  0  0  0
  1  2  1  0
  2  3  2  0
  2  4  1  0
  4  5  2  0
  5  6  1  0
  6  7  2  0
  7  8  1  0
  8  9  2  0
  9 10  1  0
 10 11  2  0
 11 12  1  0
 12 13  2  0
 13 14  1  0
 14 15  1  0
 15 16  1  0
 16 17  1  0
 17 18  1  0
 18 19  2  0
 19 20  1  0
 20 21  1  0
 21 22  1  0
 21 23  1  0
 21 24  1  0
 20 25  2  0
 25 26  1  0
 26 27  1  0
 17 28  1  0
 28 29  1  0
 13  4  1  0
 29 14  1  0
 12  7  1  0
 26 18  1  0
M  END
>  <AAScore>  (1) 
9.723842095379394

>  <RootName>  (1) 
./4ZLY/04_DeltaGEst/trajectory_03/rank_01/lead_0034

$$$$
