confid_0
     RDKit          3D

 27 30  0  0  0  0  0  0  0  0999 V2000
   25.3300   26.2600   34.7600 N   0  0  0  0  0  0  0  0  0  0  0  0
   26.1200   25.9200   33.6900 C   0  0  0  0  0  0  0  0  0  0  0  0
   25.6300   25.1100   32.9400 O   0  0  0  0  0  0  0  0  0  0  0  0
   27.5200   26.3800   33.4600 C   0  0  0  0  0  0  0  0  0  0  0  0
   28.1600   26.6300   34.6100 N   0  0  0  0  0  0  0  0  0  0  0  0
   29.4800   26.8500   34.5700 N   0  0  0  0  0  0  0  0  0  0  0  0
   30.1900   26.7800   33.4400 C   0  0  0  0  0  0  0  0  0  0  0  0
   31.5600   27.0500   33.5000 C   0  0  0  0  0  0  0  0  0  0  0  0
   32.2700   27.2400   32.3100 C   0  0  0  0  0  0  0  0  0  0  0  0
   31.6100   27.2500   31.0800 C   0  0  0  0  0  0  0  0  0  0  0  0
   30.2700   26.8700   31.0600 C   0  0  0  0  0  0  0  0  0  0  0  0
   29.5100   26.6900   32.2300 C   0  0  0  0  0  0  0  0  0  0  0  0
   28.1400   26.4100   32.2000 C   0  0  0  0  0  0  0  0  0  0  0  0
   27.4300   26.1300   31.0500 N   0  0  0  0  0  0  0  0  0  0  0  0
   27.5712   24.8105   30.4171 C   0  0  0  0  0  0  0  0  0  0  0  0
   26.5922   24.6438   29.2507 C   0  0  0  0  0  0  0  0  0  0  0  0
   26.6216   25.8299   28.3836 N   0  0  0  0  0  0  0  0  0  0  0  0
   26.3776   25.6821   26.9711 C   0  0  0  0  0  0  0  0  0  0  0  0
   25.3007   24.9111   26.5150 C   0  0  0  0  0  0  0  0  0  0  0  0
   25.0678   24.7854   25.1477 C   0  0  0  0  0  0  0  0  0  0  0  0
   25.9253   25.4355   24.2540 C   0  0  0  0  0  0  0  0  0  0  0  0
   25.7028   25.3242   22.7803 C   0  0  0  0  0  0  0  0  0  0  0  0
   26.9470   26.1541   24.7133 O   0  0  0  0  0  0  0  0  0  0  0  0
   27.2035   26.2977   26.0110 C   0  0  0  0  0  0  0  0  0  0  0  0
   28.2043   26.9742   26.3657 O   0  0  0  0  0  0  0  0  0  0  0  0
   26.6567   27.1797   28.9712 C   0  0  0  0  0  0  0  0  0  0  0  0
   26.5163   27.1346   30.4954 C   0  0  0  0  0  0  0  0  0  0  0  0
  1  2  1  0
  2  3  2  0
  2  4  1  0
  4  5  2  0
  5  6  1  0
  6  7  2  0
  7  8  1  0
  8  9  2  0
  9 10  1  0
 10 11  2  0
 11 12  1  0
 12 13  2  0
 13 14  1  0
 14 15  1  0
 15 16  1  0
 16 17  1  0
 17 18  1  0
 18 19  2  0
 19 20  1  0
 20 21  2  0
 21 22  1  0
 21 23  1  0
 23 24  1  0
 24 25  2  0
 17 26  1  0
 26 27  1  0
 13  4  1  0
 27 14  1  0
 12  7  1  0
 24 18  1  0
M  END
>  <AAScore>  (1) 
2.623285205907068

>  <RootName>  (1) 
./4ZLY/04_DeltaGEst/trajectory_03/rank_01/lead_0465

$$$$
