confid_19
     RDKit          3D

 29 32  0  0  0  0  0  0  0  0999 V2000
   24.6900   26.1200   35.5300 N   0  0  0  0  0  0  0  0  0  0  0  0
   25.6600   25.6700   34.6600 C   0  0  0  0  0  0  0  0  0  0  0  0
   25.2400   25.0100   33.7200 O   0  0  0  0  0  0  0  0  0  0  0  0
   27.0300   26.2200   34.8800 C   0  0  0  0  0  0  0  0  0  0  0  0
   27.3500   26.7300   36.0700 N   0  0  0  0  0  0  0  0  0  0  0  0
   28.5700   27.1800   36.3300 N   0  0  0  0  0  0  0  0  0  0  0  0
   29.5300   27.1100   35.3900 C   0  0  0  0  0  0  0  0  0  0  0  0
   30.8300   27.5700   35.6500 C   0  0  0  0  0  0  0  0  0  0  0  0
   31.8500   27.5400   34.6900 C   0  0  0  0  0  0  0  0  0  0  0  0
   31.5100   27.1200   33.4000 C   0  0  0  0  0  0  0  0  0  0  0  0
   30.2200   26.6300   33.1100 C   0  0  0  0  0  0  0  0  0  0  0  0
   29.2400   26.6600   34.1000 C   0  0  0  0  0  0  0  0  0  0  0  0
   27.9300   26.2600   33.8100 C   0  0  0  0  0  0  0  0  0  0  0  0
   27.5200   25.7100   32.6100 N   0  0  0  0  0  0  0  0  0  0  0  0
   23.2855   26.2310   35.2260 C   0  0  0  0  0  0  0  0  0  0  0  0
   22.3867   26.0415   36.2212 N   0  0  0  0  0  0  0  0  0  0  0  0
   21.0533   26.1520   36.0169 C   0  0  0  0  0  0  0  0  0  0  0  0
   20.5343   26.4794   34.7478 C   0  0  0  0  0  0  0  0  0  0  0  0
   19.0273   26.5360   34.6427 C   0  0  0  0  0  0  0  0  0  0  0  0
   18.5493   25.7077   33.4976 C   0  0  0  0  0  0  0  0  0  0  0  0
   17.9712   24.6073   33.7189 O   0  0  0  0  0  0  0  0  0  0  0  0
   18.7854   26.1463   32.1548 N   0  0  0  0  0  0  0  0  0  0  0  0
   18.2184   25.3904   31.0334 C   0  0  0  0  0  0  0  0  0  0  0  0
   19.5526   27.3760   31.9274 C   0  0  0  0  0  0  0  0  0  0  0  0
   21.0701   27.1849   32.2202 C   0  0  0  0  0  0  0  0  0  0  0  0
   21.7424   28.5466   31.9008 C   0  0  0  0  0  0  0  0  0  0  0  0
   21.6064   26.1252   31.2246 C   0  0  0  0  0  0  0  0  0  0  0  0
   21.4494   26.7589   33.6742 C   0  0  0  0  0  0  0  0  0  0  0  0
   22.8329   26.6147   33.9566 C   0  0  0  0  0  0  0  0  0  0  0  0
  1  2  1  0
  2  3  2  0
  2  4  1  0
  4  5  2  0
  5  6  1  0
  6  7  2  0
  7  8  1  0
  8  9  2  0
  9 10  1  0
 10 11  2  0
 11 12  1  0
 12 13  2  0
 13 14  1  0
  1 15  1  0
 15 16  2  0
 16 17  1  0
 17 18  2  0
 18 19  1  0
 19 20  1  0
 20 21  2  0
 20 22  1  0
 22 23  1  0
 22 24  1  0
 24 25  1  0
 25 26  1  0
 25 27  1  0
 25 28  1  0
 28 29  2  0
 13  4  1  0
 29 15  1  0
 12  7  1  0
 28 18  1  0
M  END
>  <AAScore>  (1) 
640.2298315548272

>  <RootName>  (1) 
./4ZLY/04_DeltaGEst/trajectory_02/rank_00/lead_0358

$$$$
