confid_15
     RDKit          3D

 29 31  0  0  0  0  0  0  0  0999 V2000
   24.5700   26.8800   35.5900 N   0  0  0  0  0  0  0  0  0  0  0  0
   25.5000   26.4000   34.6900 C   0  0  0  0  0  0  0  0  0  0  0  0
   25.1700   25.5200   33.9100 O   0  0  0  0  0  0  0  0  0  0  0  0
   26.8400   27.0200   34.7400 C   0  0  0  0  0  0  0  0  0  0  0  0
   27.3800   27.2800   35.9400 N   0  0  0  0  0  0  0  0  0  0  0  0
   28.6200   27.7400   36.0300 N   0  0  0  0  0  0  0  0  0  0  0  0
   29.3800   28.0000   34.9600 C   0  0  0  0  0  0  0  0  0  0  0  0
   30.6700   28.5000   35.1300 C   0  0  0  0  0  0  0  0  0  0  0  0
   31.5400   28.6100   34.0300 C   0  0  0  0  0  0  0  0  0  0  0  0
   31.0900   28.2200   32.7700 C   0  0  0  0  0  0  0  0  0  0  0  0
   29.8000   27.7000   32.6000 C   0  0  0  0  0  0  0  0  0  0  0  0
   28.9600   27.5500   33.7100 C   0  0  0  0  0  0  0  0  0  0  0  0
   27.6600   27.0300   33.5900 C   0  0  0  0  0  0  0  0  0  0  0  0
   27.1600   26.7400   32.3400 N   0  0  0  0  0  0  0  0  0  0  0  0
   33.1621   29.2646   34.2222 S   0  0  0  0  0  6  0  0  0  0  0  0
   34.1248   28.4122   33.4441 O   0  0  0  0  0  0  0  0  0  0  0  0
   33.5544   29.2419   35.6736 O   0  0  0  0  0  0  0  0  0  0  0  0
   33.1650   30.9487   33.6093 C   0  0  0  0  0  0  0  0  0  0  0  0
   34.4213   31.7601   34.0157 C   0  0  2  0  0  0  0  0  0  0  0  0
   34.3484   33.2995   33.7243 C   0  0  0  0  0  0  0  0  0  0  0  0
   33.2993   33.8281   32.7092 C   0  0  0  0  0  0  0  0  0  0  0  0
   33.7515   33.9039   31.2357 C   0  0  2  0  0  0  0  0  0  0  0  0
   34.0778   32.5349   30.7338 N   0  0  0  0  0  0  0  0  0  0  0  0
   33.0229   32.0208   29.8418 C   0  0  0  0  0  0  0  0  0  0  0  0
   35.4227   32.2949   30.1596 C   0  0  0  0  0  0  0  0  0  0  0  0
   36.4362   31.9384   31.2529 C   0  0  0  0  0  0  0  0  0  0  0  0
   35.9715   30.7538   32.1251 C   0  0  0  0  0  0  0  0  0  0  0  0
   35.7799   31.1174   33.6114 C   0  0  0  0  0  0  0  0  0  0  0  0
   34.8146   35.0039   31.0127 C   0  0  0  0  0  0  0  0  0  0  0  0
  1  2  1  0
  2  3  2  0
  2  4  1  0
  4  5  2  0
  5  6  1  0
  6  7  2  0
  7  8  1  0
  8  9  2  0
  9 10  1  0
 10 11  2  0
 11 12  1  0
 12 13  2  0
 13 14  1  0
  9 15  1  0
 15 16  2  0
 15 17  2  0
 15 18  1  0
 19 18  1  6
 19 20  1  0
 20 21  1  0
 21 22  1  0
 22 23  1  0
 23 24  1  0
 23 25  1  0
 25 26  1  0
 26 27  1  0
 27 28  1  0
 22 29  1  1
 13  4  1  0
 28 19  1  0
 12  7  1  0
M  END
>  <AAScore>  (1) 
-2.3725686319719146

>  <RootName>  (1) 
./4ZLY/04_DeltaGEst/trajectory_05/rank_01/lead_0246

$$$$
