confid_0
     RDKit          3D

 27 31  0  0  0  0  0  0  0  0999 V2000
   24.6900   26.1200   35.5300 N   0  0  0  0  0  0  0  0  0  0  0  0
   25.6600   25.6700   34.6600 C   0  0  0  0  0  0  0  0  0  0  0  0
   25.2400   25.0100   33.7200 O   0  0  0  0  0  0  0  0  0  0  0  0
   27.0300   26.2200   34.8800 C   0  0  0  0  0  0  0  0  0  0  0  0
   27.3500   26.7300   36.0700 N   0  0  0  0  0  0  0  0  0  0  0  0
   28.5700   27.1800   36.3300 N   0  0  0  0  0  0  0  0  0  0  0  0
   29.5300   27.1100   35.3900 C   0  0  0  0  0  0  0  0  0  0  0  0
   30.8300   27.5700   35.6500 C   0  0  0  0  0  0  0  0  0  0  0  0
   31.8500   27.5400   34.6900 C   0  0  0  0  0  0  0  0  0  0  0  0
   31.5100   27.1200   33.4000 C   0  0  0  0  0  0  0  0  0  0  0  0
   30.2200   26.6300   33.1100 C   0  0  0  0  0  0  0  0  0  0  0  0
   29.2400   26.6600   34.1000 C   0  0  0  0  0  0  0  0  0  0  0  0
   27.9300   26.2600   33.8100 C   0  0  0  0  0  0  0  0  0  0  0  0
   27.5200   25.7100   32.6100 N   0  0  0  0  0  0  0  0  0  0  0  0
   31.1430   28.0728   36.9582 N   0  0  0  0  0  0  0  0  0  0  0  0
   31.2173   27.2242   38.1421 C   0  0  0  0  0  0  0  0  0  0  0  0
   31.7323   28.1581   39.1659 C   0  0  0  0  0  0  0  0  0  0  0  0
   31.8905   27.8611   40.3794 O   0  0  0  0  0  0  0  0  0  0  0  0
   31.9668   29.4611   38.6483 N   0  0  0  0  0  0  0  0  0  0  0  0
   31.3583   30.6466   39.2593 C   0  0  0  0  0  0  0  0  0  0  0  0
   30.5473   31.2148   38.1517 C   0  0  0  0  0  0  0  0  0  0  0  0
   29.6959   32.3201   38.1927 C   0  0  0  0  0  0  0  0  0  0  0  0
   29.0231   32.6923   37.0176 C   0  0  0  0  0  0  0  0  0  0  0  0
   29.2161   31.9640   35.8279 C   0  0  0  0  0  0  0  0  0  0  0  0
   30.0809   30.8582   35.8074 C   0  0  0  0  0  0  0  0  0  0  0  0
   30.7268   30.4952   36.9916 C   0  0  0  0  0  0  0  0  0  0  0  0
   31.7084   29.4008   37.2113 C   0  0  2  0  0  0  0  0  0  0  0  0
  1  2  1  0
  2  3  2  0
  2  4  1  0
  4  5  2  0
  5  6  1  0
  6  7  2  0
  7  8  1  0
  8  9  2  0
  9 10  1  0
 10 11  2  0
 11 12  1  0
 12 13  2  0
 13 14  1  0
  8 15  1  0
 15 16  1  0
 16 17  1  0
 17 18  2  0
 17 19  1  0
 19 20  1  0
 20 21  1  0
 21 22  2  0
 22 23  1  0
 23 24  2  0
 24 25  1  0
 25 26  2  0
 26 27  1  0
 13  4  1  0
 27 15  1  1
 12  7  1  0
 27 19  1  0
 26 21  1  0
M  END
>  <AAScore>  (1) 
-2.6135172526117656

>  <RootName>  (1) 
./4ZLY/04_DeltaGEst/trajectory_02/rank_01/lead_0146

$$$$
