confid_16
     RDKit          3D

 29 33  0  0  0  0  0  0  0  0999 V2000
   24.6900   26.1200   35.5300 N   0  0  0  0  0  0  0  0  0  0  0  0
   25.6600   25.6700   34.6600 C   0  0  0  0  0  0  0  0  0  0  0  0
   25.2400   25.0100   33.7200 O   0  0  0  0  0  0  0  0  0  0  0  0
   27.0300   26.2200   34.8800 C   0  0  0  0  0  0  0  0  0  0  0  0
   27.3500   26.7300   36.0700 N   0  0  0  0  0  0  0  0  0  0  0  0
   28.5700   27.1800   36.3300 N   0  0  0  0  0  0  0  0  0  0  0  0
   29.5300   27.1100   35.3900 C   0  0  0  0  0  0  0  0  0  0  0  0
   30.8300   27.5700   35.6500 C   0  0  0  0  0  0  0  0  0  0  0  0
   31.8500   27.5400   34.6900 C   0  0  0  0  0  0  0  0  0  0  0  0
   31.5100   27.1200   33.4000 C   0  0  0  0  0  0  0  0  0  0  0  0
   30.2200   26.6300   33.1100 C   0  0  0  0  0  0  0  0  0  0  0  0
   29.2400   26.6600   34.1000 C   0  0  0  0  0  0  0  0  0  0  0  0
   27.9300   26.2600   33.8100 C   0  0  0  0  0  0  0  0  0  0  0  0
   27.5200   25.7100   32.6100 N   0  0  0  0  0  0  0  0  0  0  0  0
   23.2660   26.1085   35.2971 C   0  0  0  0  0  0  0  0  0  0  0  0
   22.4277   26.2929   36.2671 N   0  0  0  0  0  0  0  0  0  0  0  0
   21.1193   26.2309   35.7166 C   0  0  0  0  0  0  0  0  0  0  0  0
   21.1669   26.0020   34.4152 C   0  0  0  0  0  0  0  0  0  0  0  0
   20.0351   26.1268   33.4437 C   0  0  1  0  0  0  0  0  0  0  0  0
   20.6319   26.3350   32.0352 C   0  0  0  0  0  0  0  0  0  0  0  0
   21.7081   27.3458   32.0674 N   0  0  0  0  0  0  0  0  0  0  0  0
   22.8797   26.9651   32.8976 C   0  0  0  0  0  0  0  0  0  0  0  0
   22.5775   25.8902   33.9739 C   0  0  1  0  0  0  0  0  0  0  0  0
   19.1266   24.9141   33.4920 C   0  0  0  0  0  0  0  0  0  0  0  0
   17.7357   25.0833   33.6194 C   0  0  0  0  0  0  0  0  0  0  0  0
   16.8919   23.9686   33.6889 C   0  0  0  0  0  0  0  0  0  0  0  0
   17.4238   22.6792   33.6039 C   0  0  0  0  0  0  0  0  0  0  0  0
   18.8005   22.5010   33.4457 C   0  0  0  0  0  0  0  0  0  0  0  0
   19.6490   23.6100   33.3868 C   0  0  0  0  0  0  0  0  0  0  0  0
  1  2  1  0
  2  3  2  0
  2  4  1  0
  4  5  2  0
  5  6  1  0
  6  7  2  0
  7  8  1  0
  8  9  2  0
  9 10  1  0
 10 11  2  0
 11 12  1  0
 12 13  2  0
 13 14  1  0
  1 15  1  0
 15 16  2  0
 16 17  1  0
 17 18  2  0
 18 19  1  0
 19 20  1  0
 20 21  1  0
 21 22  1  0
 23 22  1  6
 19 24  1  6
 24 25  2  0
 25 26  1  0
 26 27  2  0
 27 28  1  0
 28 29  2  0
 13  4  1  0
 23 15  1  0
 29 24  1  0
 12  7  1  0
 23 18  1  0
M  END
>  <AAScore>  (1) 
699.0554768554633

>  <RootName>  (1) 
./4ZLY/04_DeltaGEst/trajectory_02/rank_00/lead_0174

$$$$
