confid_14
     RDKit          3D

 28 31  0  0  0  0  0  0  0  0999 V2000
   24.5500   26.3900   36.2500 N   0  0  0  0  0  0  0  0  0  0  0  0
   25.6000   26.1300   35.4000 C   0  0  0  0  0  0  0  0  0  0  0  0
   25.4300   25.4300   34.4200 O   0  0  0  0  0  0  0  0  0  0  0  0
   26.9800   26.6300   35.7100 C   0  0  0  0  0  0  0  0  0  0  0  0
   27.3200   26.8200   36.9800 N   0  0  0  0  0  0  0  0  0  0  0  0
   28.4700   27.4000   37.3100 N   0  0  0  0  0  0  0  0  0  0  0  0
   29.4000   27.6300   36.3700 C   0  0  0  0  0  0  0  0  0  0  0  0
   30.6600   28.0500   36.8000 C   0  0  0  0  0  0  0  0  0  0  0  0
   31.5700   28.3600   35.7800 C   0  0  0  0  0  0  0  0  0  0  0  0
   31.3700   28.1000   34.4300 C   0  0  0  0  0  0  0  0  0  0  0  0
   30.1200   27.5900   34.0500 C   0  0  0  0  0  0  0  0  0  0  0  0
   29.1500   27.3400   35.0300 C   0  0  0  0  0  0  0  0  0  0  0  0
   27.8800   26.8900   34.6600 C   0  0  0  0  0  0  0  0  0  0  0  0
   27.4800   26.6100   33.3700 N   0  0  0  0  0  0  0  0  0  0  0  0
   23.1610   25.9570   36.0312 C   0  0  0  0  0  0  0  0  0  0  0  0
   22.5548   26.6559   34.7989 C   0  0  0  0  0  0  0  0  0  0  0  0
   21.1804   26.0691   34.4636 C   0  0  0  0  0  0  0  0  0  0  0  0
   21.2388   24.6069   34.3088 N   0  0  0  0  0  0  0  0  0  0  0  0
   20.1121   23.9324   33.7116 C   0  0  0  0  0  0  0  0  0  0  0  0
   18.9674   24.4593   33.7774 O   0  0  0  0  0  0  0  0  0  0  0  0
   20.2620   22.5937   33.0357 C   0  0  0  0  0  0  0  0  0  0  0  0
   19.2434   22.4255   31.9792 N   0  0  0  0  0  0  0  0  0  0  0  0
   19.6029   23.1457   30.7463 C   0  0  0  0  0  0  0  0  0  0  0  0
   19.8178   21.8653   29.9640 C   0  0  0  0  0  0  0  0  0  0  0  0
   21.1483   21.6687   29.6351 F   0  0  0  0  0  0  0  0  0  0  0  0
   19.4338   21.1615   31.2510 C   0  0  0  0  0  0  0  0  0  0  0  0
   22.4620   23.8741   34.6743 C   0  0  0  0  0  0  0  0  0  0  0  0
   23.0410   24.4090   35.9916 C   0  0  0  0  0  0  0  0  0  0  0  0
  1  2  1  0
  2  3  2  0
  2  4  1  0
  4  5  2  0
  5  6  1  0
  6  7  2  0
  7  8  1  0
  8  9  2  0
  9 10  1  0
 10 11  2  0
 11 12  1  0
 12 13  2  0
 13 14  1  0
  1 15  1  0
 15 16  1  0
 16 17  1  0
 17 18  1  0
 18 19  1  0
 19 20  2  0
 19 21  1  0
 21 22  1  0
 22 23  1  0
 23 24  1  0
 24 25  1  0
 24 26  1  0
 18 27  1  0
 27 28  1  0
 13  4  1  0
 28 15  1  0
 12  7  1  0
 26 22  1  0
M  END
>  <AAScore>  (1) 
617.9685999118274

>  <RootName>  (1) 
./4ZLY/04_DeltaGEst/trajectory_01/rank_00/lead_0313

$$$$
