confid_8
     RDKit          3D

 28 31  0  0  0  0  0  0  0  0999 V2000
   24.5500   26.3900   36.2500 N   0  0  0  0  0  0  0  0  0  0  0  0
   25.6000   26.1300   35.4000 C   0  0  0  0  0  0  0  0  0  0  0  0
   25.4300   25.4300   34.4200 O   0  0  0  0  0  0  0  0  0  0  0  0
   26.9800   26.6300   35.7100 C   0  0  0  0  0  0  0  0  0  0  0  0
   27.3200   26.8200   36.9800 N   0  0  0  0  0  0  0  0  0  0  0  0
   28.4700   27.4000   37.3100 N   0  0  0  0  0  0  0  0  0  0  0  0
   29.4000   27.6300   36.3700 C   0  0  0  0  0  0  0  0  0  0  0  0
   30.6600   28.0500   36.8000 C   0  0  0  0  0  0  0  0  0  0  0  0
   31.5700   28.3600   35.7800 C   0  0  0  0  0  0  0  0  0  0  0  0
   31.3700   28.1000   34.4300 C   0  0  0  0  0  0  0  0  0  0  0  0
   30.1200   27.5900   34.0500 C   0  0  0  0  0  0  0  0  0  0  0  0
   29.1500   27.3400   35.0300 C   0  0  0  0  0  0  0  0  0  0  0  0
   27.8800   26.8900   34.6600 C   0  0  0  0  0  0  0  0  0  0  0  0
   27.4800   26.6100   33.3700 N   0  0  0  0  0  0  0  0  0  0  0  0
   23.3970   25.5554   36.4731 C   0  0  0  0  0  0  0  0  0  0  0  0
   22.4178   25.9818   37.2054 N   0  0  0  0  0  0  0  0  0  0  0  0
   21.5201   24.9047   37.4133 C   0  0  0  0  0  0  0  0  0  0  0  0
   21.9710   23.8016   36.8487 C   0  0  0  0  0  0  0  0  0  0  0  0
   21.1582   22.5711   36.5921 C   0  0  0  0  0  0  0  0  0  0  0  0
   21.7756   21.8007   35.4942 N   0  0  0  0  0  0  0  0  0  0  0  0
   20.9065   20.6764   35.1187 C   0  0  0  0  0  0  0  0  0  0  0  0
   22.0199   22.6760   34.3260 C   0  0  0  0  0  0  0  0  0  0  0  0
   23.0944   23.7535   34.6334 C   0  0  0  0  0  0  0  0  0  0  0  0
   23.2681   24.0730   36.1512 C   0  0  1  0  0  0  0  0  0  0  0  0
   24.4077   23.2484   36.7939 C   0  0  0  0  0  0  0  0  0  0  0  0
   24.5161   23.5534   38.1706 O   0  0  0  0  0  0  0  0  0  0  0  0
   25.5734   22.8109   38.7383 C   0  0  0  0  0  0  0  0  0  0  0  0
   25.7111   23.1859   40.2047 C   0  0  0  0  0  0  0  0  0  0  0  0
  1  2  1  0
  2  3  2  0
  2  4  1  0
  4  5  2  0
  5  6  1  0
  6  7  2  0
  7  8  1  0
  8  9  2  0
  9 10  1  0
 10 11  2  0
 11 12  1  0
 12 13  2  0
 13 14  1  0
  1 15  1  0
 15 16  2  0
 16 17  1  0
 17 18  2  0
 18 19  1  0
 19 20  1  0
 20 21  1  0
 20 22  1  0
 22 23  1  0
 23 24  1  0
 24 25  1  1
 25 26  1  0
 26 27  1  0
 27 28  1  0
 13  4  1  0
 24 15  1  0
 12  7  1  0
 24 18  1  0
M  END
>  <AAScore>  (1) 
4678.8339045604125

>  <RootName>  (1) 
./4ZLY/04_DeltaGEst/trajectory_01/rank_00/lead_0230

$$$$
