confid_12
     RDKit          3D

 27 30  0  0  0  0  0  0  0  0999 V2000
   24.2000   26.2400   35.6900 N   0  0  0  0  0  0  0  0  0  0  0  0
   24.8500   26.2800   34.4800 C   0  0  0  0  0  0  0  0  0  0  0  0
   24.3100   25.7400   33.5400 O   0  0  0  0  0  0  0  0  0  0  0  0
   26.1800   26.9700   34.4700 C   0  0  0  0  0  0  0  0  0  0  0  0
   26.6500   27.6000   35.5500 N   0  0  0  0  0  0  0  0  0  0  0  0
   27.7900   28.2700   35.6200 N   0  0  0  0  0  0  0  0  0  0  0  0
   28.5400   28.3000   34.5100 C   0  0  0  0  0  0  0  0  0  0  0  0
   29.7700   28.9400   34.5600 C   0  0  0  0  0  0  0  0  0  0  0  0
   30.7000   28.8900   33.5000 C   0  0  0  0  0  0  0  0  0  0  0  0
   30.3700   28.1400   32.3700 C   0  0  0  0  0  0  0  0  0  0  0  0
   29.1200   27.5200   32.2800 C   0  0  0  0  0  0  0  0  0  0  0  0
   28.2100   27.6100   33.3300 C   0  0  0  0  0  0  0  0  0  0  0  0
   26.9700   26.9700   33.3100 C   0  0  0  0  0  0  0  0  0  0  0  0
   26.5300   26.2400   32.2200 N   0  0  0  0  0  0  0  0  0  0  0  0
   30.1417   29.6554   35.7494 N   0  0  0  0  0  0  0  0  0  0  0  0
   30.3539   31.1016   35.6866 C   0  0  0  0  0  0  0  0  0  0  0  0
   29.7713   31.7569   36.9372 C   0  0  0  0  0  0  0  0  0  0  0  0
   30.1819   31.0322   38.1942 C   0  0  0  0  0  0  0  0  0  0  0  0
   30.0886   31.6846   39.4312 C   0  0  0  0  0  0  0  0  0  0  0  0
   30.3996   31.0039   40.6087 C   0  0  0  0  0  0  0  0  0  0  0  0
   30.7942   29.6668   40.5455 C   0  0  0  0  0  0  0  0  0  0  0  0
   30.8682   29.0411   39.3378 N   0  0  0  0  0  0  0  0  0  0  0  0
   30.5640   29.6733   38.1716 C   0  0  0  0  0  0  0  0  0  0  0  0
   30.7038   28.9115   36.8804 C   0  0  0  0  0  0  0  0  0  0  0  0
   31.1056   28.9857   41.7260 O   0  0  0  0  0  0  0  0  0  0  0  0
   31.5328   27.6274   41.7411 C   0  0  0  0  0  0  0  0  0  0  0  0
   31.7866   27.1894   43.1748 C   0  0  0  0  0  0  0  0  0  0  0  0
  1  2  1  0
  2  3  2  0
  2  4  1  0
  4  5  2  0
  5  6  1  0
  6  7  2  0
  7  8  1  0
  8  9  2  0
  9 10  1  0
 10 11  2  0
 11 12  1  0
 12 13  2  0
 13 14  1  0
  8 15  1  0
 15 16  1  0
 16 17  1  0
 17 18  1  0
 18 19  2  0
 19 20  1  0
 20 21  2  0
 21 22  1  0
 22 23  2  0
 23 24  1  0
 21 25  1  0
 25 26  1  0
 26 27  1  0
 13  4  1  0
 24 15  1  0
 12  7  1  0
 23 18  1  0
M  END
>  <AAScore>  (1) 
-8.40555674018943

>  <RootName>  (1) 
./4ZLY/04_DeltaGEst/trajectory_04/rank_01/lead_0244

$$$$
