confid_7
     RDKit          3D

 28 31  0  0  0  0  0  0  0  0999 V2000
   25.3300   26.2600   34.7600 N   0  0  0  0  0  0  0  0  0  0  0  0
   26.1200   25.9200   33.6900 C   0  0  0  0  0  0  0  0  0  0  0  0
   25.6300   25.1100   32.9400 O   0  0  0  0  0  0  0  0  0  0  0  0
   27.5200   26.3800   33.4600 C   0  0  0  0  0  0  0  0  0  0  0  0
   28.1600   26.6300   34.6100 N   0  0  0  0  0  0  0  0  0  0  0  0
   29.4800   26.8500   34.5700 N   0  0  0  0  0  0  0  0  0  0  0  0
   30.1900   26.7800   33.4400 C   0  0  0  0  0  0  0  0  0  0  0  0
   31.5600   27.0500   33.5000 C   0  0  0  0  0  0  0  0  0  0  0  0
   32.2700   27.2400   32.3100 C   0  0  0  0  0  0  0  0  0  0  0  0
   31.6100   27.2500   31.0800 C   0  0  0  0  0  0  0  0  0  0  0  0
   30.2700   26.8700   31.0600 C   0  0  0  0  0  0  0  0  0  0  0  0
   29.5100   26.6900   32.2300 C   0  0  0  0  0  0  0  0  0  0  0  0
   28.1400   26.4100   32.2000 C   0  0  0  0  0  0  0  0  0  0  0  0
   27.4300   26.1300   31.0500 N   0  0  0  0  0  0  0  0  0  0  0  0
   26.5168   27.1359   30.4948 C   0  0  0  0  0  0  0  0  0  0  0  0
   26.6975   27.2244   28.9761 C   0  0  0  0  0  0  0  0  0  0  0  0
   26.7620   25.8899   28.3629 N   0  0  0  0  0  0  0  0  0  0  0  0
   26.6989   25.7763   26.9333 C   0  0  0  0  0  0  0  0  0  0  0  0
   25.5116   25.3380   26.3282 C   0  0  0  0  0  0  0  0  0  0  0  0
   25.4198   25.2313   24.9327 C   0  0  0  0  0  0  0  0  0  0  0  0
   26.5389   25.5320   24.1432 C   0  0  0  0  0  0  0  0  0  0  0  0
   27.7279   25.9597   24.7394 C   0  0  0  0  0  0  0  0  0  0  0  0
   27.8157   26.0847   26.1317 C   0  0  0  0  0  0  0  0  0  0  0  0
   29.0672   26.4892   26.7231 C   0  0  0  0  0  0  0  0  0  0  0  0
   30.0720   26.8132   27.1970 N   0  0  0  0  0  0  0  0  0  0  0  0
   24.1579   24.7299   24.2952 C   0  0  0  0  0  0  0  0  0  0  0  0
   26.6702   24.6802   29.1868 C   0  0  0  0  0  0  0  0  0  0  0  0
   27.5794   24.8129   30.4119 C   0  0  0  0  0  0  0  0  0  0  0  0
  1  2  1  0
  2  3  2  0
  2  4  1  0
  4  5  2  0
  5  6  1  0
  6  7  2  0
  7  8  1  0
  8  9  2  0
  9 10  1  0
 10 11  2  0
 11 12  1  0
 12 13  2  0
 13 14  1  0
 14 15  1  0
 15 16  1  0
 16 17  1  0
 17 18  1  0
 18 19  2  0
 19 20  1  0
 20 21  2  0
 21 22  1  0
 22 23  2  0
 23 24  1  0
 24 25  3  0
 20 26  1  0
 17 27  1  0
 27 28  1  0
 13  4  1  0
 28 14  1  0
 12  7  1  0
 23 18  1  0
M  END
>  <AAScore>  (1) 
13.27236850705

>  <RootName>  (1) 
./4ZLY/04_DeltaGEst/trajectory_03/rank_01/lead_0218

$$$$
