confid_7
     RDKit          3D

 28 31  0  0  0  0  0  0  0  0999 V2000
   24.5700   26.8800   35.5900 N   0  0  0  0  0  0  0  0  0  0  0  0
   25.5000   26.4000   34.6900 C   0  0  0  0  0  0  0  0  0  0  0  0
   25.1700   25.5200   33.9100 O   0  0  0  0  0  0  0  0  0  0  0  0
   26.8400   27.0200   34.7400 C   0  0  0  0  0  0  0  0  0  0  0  0
   27.3800   27.2800   35.9400 N   0  0  0  0  0  0  0  0  0  0  0  0
   28.6200   27.7400   36.0300 N   0  0  0  0  0  0  0  0  0  0  0  0
   29.3800   28.0000   34.9600 C   0  0  0  0  0  0  0  0  0  0  0  0
   30.6700   28.5000   35.1300 C   0  0  0  0  0  0  0  0  0  0  0  0
   31.5400   28.6100   34.0300 C   0  0  0  0  0  0  0  0  0  0  0  0
   31.0900   28.2200   32.7700 C   0  0  0  0  0  0  0  0  0  0  0  0
   29.8000   27.7000   32.6000 C   0  0  0  0  0  0  0  0  0  0  0  0
   28.9600   27.5500   33.7100 C   0  0  0  0  0  0  0  0  0  0  0  0
   27.6600   27.0300   33.5900 C   0  0  0  0  0  0  0  0  0  0  0  0
   27.1600   26.7400   32.3400 N   0  0  0  0  0  0  0  0  0  0  0  0
   23.3666   26.1902   35.9700 C   0  0  0  0  0  0  0  0  0  0  0  0
   22.2733   26.9164   36.3192 N   0  0  0  0  0  0  0  0  0  0  0  0
   21.1094   26.3382   36.7150 C   0  0  0  0  0  0  0  0  0  0  0  0
   20.9957   24.9335   36.7961 C   0  0  0  0  0  0  0  0  0  0  0  0
   19.7168   24.2323   37.2641 C   0  0  2  0  0  0  0  0  0  0  0  0
   19.1408   23.3051   36.1609 C   0  0  0  0  0  0  0  0  0  0  0  0
   19.5499   21.9050   36.4369 N   0  0  0  0  0  0  0  0  0  0  0  0
   20.3985   21.3275   35.3741 C   0  0  0  0  0  0  0  0  0  0  0  0
   21.7478   22.0541   35.2432 C   0  0  0  0  0  0  0  0  0  0  0  0
   22.0679   22.7707   36.4350 O   0  0  0  0  0  0  0  0  0  0  0  0
   22.1239   24.1657   36.4365 C   0  0  0  0  0  0  0  0  0  0  0  0
   23.3090   24.7920   36.0421 C   0  0  0  0  0  0  0  0  0  0  0  0
   18.3830   21.0428   36.6848 C   0  0  0  0  0  0  0  0  0  0  0  0
   18.6294   25.1842   37.7935 C   0  0  0  0  0  0  0  0  0  0  0  0
  1  2  1  0
  2  3  2  0
  2  4  1  0
  4  5  2  0
  5  6  1  0
  6  7  2  0
  7  8  1  0
  8  9  2  0
  9 10  1  0
 10 11  2  0
 11 12  1  0
 12 13  2  0
 13 14  1  0
  1 15  1  0
 15 16  2  0
 16 17  1  0
 17 18  2  0
 18 19  1  0
 19 20  1  0
 20 21  1  0
 21 22  1  0
 22 23  1  0
 23 24  1  0
 24 25  1  0
 25 26  2  0
 21 27  1  0
 19 28  1  6
 13  4  1  0
 26 15  1  0
 12  7  1  0
 25 18  1  0
M  END
>  <AAScore>  (1) 
2534.7304207985603

>  <RootName>  (1) 
./4ZLY/04_DeltaGEst/trajectory_05/rank_00/lead_0088

$$$$
