confid_3
     RDKit          3D

 27 30  0  0  0  0  0  0  0  0999 V2000
   25.3300   26.2600   34.7600 N   0  0  0  0  0  0  0  0  0  0  0  0
   26.1200   25.9200   33.6900 C   0  0  0  0  0  0  0  0  0  0  0  0
   25.6300   25.1100   32.9400 O   0  0  0  0  0  0  0  0  0  0  0  0
   27.5200   26.3800   33.4600 C   0  0  0  0  0  0  0  0  0  0  0  0
   28.1600   26.6300   34.6100 N   0  0  0  0  0  0  0  0  0  0  0  0
   29.4800   26.8500   34.5700 N   0  0  0  0  0  0  0  0  0  0  0  0
   30.1900   26.7800   33.4400 C   0  0  0  0  0  0  0  0  0  0  0  0
   31.5600   27.0500   33.5000 C   0  0  0  0  0  0  0  0  0  0  0  0
   32.2700   27.2400   32.3100 C   0  0  0  0  0  0  0  0  0  0  0  0
   31.6100   27.2500   31.0800 C   0  0  0  0  0  0  0  0  0  0  0  0
   30.2700   26.8700   31.0600 C   0  0  0  0  0  0  0  0  0  0  0  0
   29.5100   26.6900   32.2300 C   0  0  0  0  0  0  0  0  0  0  0  0
   28.1400   26.4100   32.2000 C   0  0  0  0  0  0  0  0  0  0  0  0
   27.4300   26.1300   31.0500 N   0  0  0  0  0  0  0  0  0  0  0  0
   23.9116   26.0161   34.8564 C   0  0  0  0  0  0  0  0  0  0  0  0
   23.1461   25.6459   33.7965 N   0  0  0  0  0  0  0  0  0  0  0  0
   21.9031   25.6428   34.3143 C   0  0  0  0  0  0  0  0  0  0  0  0
   20.6422   26.0045   33.6403 C   0  0  0  0  0  0  0  0  0  0  0  0
   19.8396   26.7018   34.6823 N   0  0  0  0  0  0  0  0  0  0  0  0
   20.6739   26.7942   35.9115 C   0  0  0  0  0  0  0  0  0  0  0  0
   21.9133   26.0629   35.5799 C   0  0  0  0  0  0  0  0  0  0  0  0
   23.1765   26.3186   35.9575 N   0  0  0  0  0  0  0  0  0  0  0  0
   23.6021   27.0651   37.1381 C   0  0  0  0  0  0  0  0  0  0  0  0
   19.3653   28.0232   34.2326 C   0  0  0  0  0  0  0  0  0  0  0  0
   20.4606   28.8629   33.9101 O   0  0  0  0  0  0  0  0  0  0  0  0
   20.0226   30.1876   33.6780 C   0  0  0  0  0  0  0  0  0  0  0  0
   20.2099   31.0294   34.9351 C   0  0  0  0  0  0  0  0  0  0  0  0
  1  2  1  0
  2  3  2  0
  2  4  1  0
  4  5  2  0
  5  6  1  0
  6  7  2  0
  7  8  1  0
  8  9  2  0
  9 10  1  0
 10 11  2  0
 11 12  1  0
 12 13  2  0
 13 14  1  0
  1 15  1  0
 15 16  2  0
 16 17  1  0
 17 18  1  0
 18 19  1  0
 19 20  1  0
 20 21  1  0
 21 22  1  0
 22 23  1  0
 19 24  1  0
 24 25  1  0
 25 26  1  0
 26 27  1  0
 13  4  1  0
 22 15  1  0
 12  7  1  0
 21 17  2  0
M  END
>  <AAScore>  (1) 
1788.551242525726

>  <RootName>  (1) 
./4ZLY/04_DeltaGEst/trajectory_03/rank_00/lead_0244

$$$$
