confid_4
     RDKit          3D

 26 28  0  0  0  0  0  0  0  0999 V2000
   24.5500   26.3900   36.2500 N   0  0  0  0  0  0  0  0  0  0  0  0
   25.6000   26.1300   35.4000 C   0  0  0  0  0  0  0  0  0  0  0  0
   25.4300   25.4300   34.4200 O   0  0  0  0  0  0  0  0  0  0  0  0
   26.9800   26.6300   35.7100 C   0  0  0  0  0  0  0  0  0  0  0  0
   27.3200   26.8200   36.9800 N   0  0  0  0  0  0  0  0  0  0  0  0
   28.4700   27.4000   37.3100 N   0  0  0  0  0  0  0  0  0  0  0  0
   29.4000   27.6300   36.3700 C   0  0  0  0  0  0  0  0  0  0  0  0
   30.6600   28.0500   36.8000 C   0  0  0  0  0  0  0  0  0  0  0  0
   31.5700   28.3600   35.7800 C   0  0  0  0  0  0  0  0  0  0  0  0
   31.3700   28.1000   34.4300 C   0  0  0  0  0  0  0  0  0  0  0  0
   30.1200   27.5900   34.0500 C   0  0  0  0  0  0  0  0  0  0  0  0
   29.1500   27.3400   35.0300 C   0  0  0  0  0  0  0  0  0  0  0  0
   27.8800   26.8900   34.6600 C   0  0  0  0  0  0  0  0  0  0  0  0
   27.4800   26.6100   33.3700 N   0  0  0  0  0  0  0  0  0  0  0  0
   30.9376   28.3561   38.1802 N   0  0  0  0  0  0  0  0  0  0  0  0
   31.2081   29.7537   38.5683 C   0  0  0  0  0  0  0  0  0  0  0  0
   29.9091   30.5691   38.6717 C   0  0  0  0  0  0  0  0  0  0  0  0
   29.1333   30.5141   37.4157 N   0  0  0  0  0  0  0  0  0  0  0  0
   29.6308   31.4710   36.4113 C   0  0  0  0  0  0  0  0  0  0  0  0
   28.8320   31.3143   35.0994 C   0  0  0  0  0  0  0  0  0  0  0  0
   27.7221   30.4451   35.2450 O   0  0  0  0  0  0  0  0  0  0  0  0
   26.9247   30.8631   36.3353 C   0  0  0  0  0  0  0  0  0  0  0  0
   27.6989   30.7523   37.6647 C   0  0  0  0  0  0  0  0  0  0  0  0
   31.1182   27.2370   39.1232 C   0  0  0  0  0  0  0  0  0  0  0  0
   32.6001   27.0452   39.4606 C   0  0  0  0  0  0  0  0  0  0  0  0
   30.2743   27.4308   40.3883 C   0  0  0  0  0  0  0  0  0  0  0  0
  1  2  1  0
  2  3  2  0
  2  4  1  0
  4  5  2  0
  5  6  1  0
  6  7  2  0
  7  8  1  0
  8  9  2  0
  9 10  1  0
 10 11  2  0
 11 12  1  0
 12 13  2  0
 13 14  1  0
  8 15  1  0
 15 16  1  0
 16 17  1  0
 17 18  1  0
 18 19  1  0
 19 20  1  0
 20 21  1  0
 21 22  1  0
 22 23  1  0
 15 24  1  0
 24 25  1  0
 24 26  1  0
 13  4  1  0
 23 18  1  0
 12  7  1  0
M  END
>  <AAScore>  (1) 
23.505667259545657

>  <RootName>  (1) 
./4ZLY/04_DeltaGEst/trajectory_01/rank_01/lead_0278

$$$$
