confid_10
     RDKit          3D

 28 31  0  0  0  0  0  0  0  0999 V2000
   24.5500   26.3900   36.2500 N   0  0  0  0  0  0  0  0  0  0  0  0
   25.6000   26.1300   35.4000 C   0  0  0  0  0  0  0  0  0  0  0  0
   25.4300   25.4300   34.4200 O   0  0  0  0  0  0  0  0  0  0  0  0
   26.9800   26.6300   35.7100 C   0  0  0  0  0  0  0  0  0  0  0  0
   27.3200   26.8200   36.9800 N   0  0  0  0  0  0  0  0  0  0  0  0
   28.4700   27.4000   37.3100 N   0  0  0  0  0  0  0  0  0  0  0  0
   29.4000   27.6300   36.3700 C   0  0  0  0  0  0  0  0  0  0  0  0
   30.6600   28.0500   36.8000 C   0  0  0  0  0  0  0  0  0  0  0  0
   31.5700   28.3600   35.7800 C   0  0  0  0  0  0  0  0  0  0  0  0
   31.3700   28.1000   34.4300 C   0  0  0  0  0  0  0  0  0  0  0  0
   30.1200   27.5900   34.0500 C   0  0  0  0  0  0  0  0  0  0  0  0
   29.1500   27.3400   35.0300 C   0  0  0  0  0  0  0  0  0  0  0  0
   27.8800   26.8900   34.6600 C   0  0  0  0  0  0  0  0  0  0  0  0
   27.4800   26.6100   33.3700 N   0  0  0  0  0  0  0  0  0  0  0  0
   30.9752   28.3137   38.1802 N   0  0  0  0  0  0  0  0  0  0  0  0
   32.1434   27.6342   38.7700 C   0  0  0  0  0  0  0  0  0  0  0  0
   32.1949   27.7805   40.2961 C   0  0  0  0  0  0  0  0  0  0  0  0
   31.9623   29.2094   40.6881 C   0  0  0  0  0  0  0  0  0  0  0  0
   32.6622   29.8067   41.7430 C   0  0  0  0  0  0  0  0  0  0  0  0
   32.3863   31.1283   42.0986 C   0  0  0  0  0  0  0  0  0  0  0  0
   31.3987   31.8396   41.4014 C   0  0  0  0  0  0  0  0  0  0  0  0
   31.0746   33.2552   41.7789 C   0  0  0  0  0  0  0  0  0  0  0  0
   30.5913   33.2904   43.0740 F   0  0  0  0  0  0  0  0  0  0  0  0
   32.2157   34.0325   41.6973 F   0  0  0  0  0  0  0  0  0  0  0  0
   30.1161   33.7781   40.9284 F   0  0  0  0  0  0  0  0  0  0  0  0
   30.7181   31.2295   40.3912 N   0  0  0  0  0  0  0  0  0  0  0  0
   30.9807   29.9480   40.0163 C   0  0  0  0  0  0  0  0  0  0  0  0
   30.1734   29.2974   38.9311 C   0  0  0  0  0  0  0  0  0  0  0  0
  1  2  1  0
  2  3  2  0
  2  4  1  0
  4  5  2  0
  5  6  1  0
  6  7  2  0
  7  8  1  0
  8  9  2  0
  9 10  1  0
 10 11  2  0
 11 12  1  0
 12 13  2  0
 13 14  1  0
  8 15  1  0
 15 16  1  0
 16 17  1  0
 17 18  1  0
 18 19  2  0
 19 20  1  0
 20 21  2  0
 21 22  1  0
 22 23  1  0
 22 24  1  0
 22 25  1  0
 21 26  1  0
 26 27  2  0
 27 28  1  0
 13  4  1  0
 28 15  1  0
 12  7  1  0
 27 18  1  0
M  END
>  <AAScore>  (1) 
416.40170847944256

>  <RootName>  (1) 
./4ZLY/04_DeltaGEst/trajectory_01/rank_01/lead_0039

$$$$
