confid_0
     RDKit          3D

 28 31  0  0  0  0  0  0  0  0999 V2000
   25.3300   26.2600   34.7600 N   0  0  0  0  0  0  0  0  0  0  0  0
   26.1200   25.9200   33.6900 C   0  0  0  0  0  0  0  0  0  0  0  0
   25.6300   25.1100   32.9400 O   0  0  0  0  0  0  0  0  0  0  0  0
   27.5200   26.3800   33.4600 C   0  0  0  0  0  0  0  0  0  0  0  0
   28.1600   26.6300   34.6100 N   0  0  0  0  0  0  0  0  0  0  0  0
   29.4800   26.8500   34.5700 N   0  0  0  0  0  0  0  0  0  0  0  0
   30.1900   26.7800   33.4400 C   0  0  0  0  0  0  0  0  0  0  0  0
   31.5600   27.0500   33.5000 C   0  0  0  0  0  0  0  0  0  0  0  0
   32.2700   27.2400   32.3100 C   0  0  0  0  0  0  0  0  0  0  0  0
   31.6100   27.2500   31.0800 C   0  0  0  0  0  0  0  0  0  0  0  0
   30.2700   26.8700   31.0600 C   0  0  0  0  0  0  0  0  0  0  0  0
   29.5100   26.6900   32.2300 C   0  0  0  0  0  0  0  0  0  0  0  0
   28.1400   26.4100   32.2000 C   0  0  0  0  0  0  0  0  0  0  0  0
   27.4300   26.1300   31.0500 N   0  0  0  0  0  0  0  0  0  0  0  0
   27.5666   24.8093   30.4202 C   0  0  0  0  0  0  0  0  0  0  0  0
   26.5484   24.6192   29.2907 C   0  0  0  0  0  0  0  0  0  0  0  0
   26.5298   25.7924   28.4024 N   0  0  0  0  0  0  0  0  0  0  0  0
   26.2639   25.6303   26.9918 C   0  0  0  0  0  0  0  0  0  0  0  0
   25.3632   24.6496   26.5396 C   0  0  0  0  0  0  0  0  0  0  0  0
   25.1027   24.4973   25.1749 C   0  0  0  0  0  0  0  0  0  0  0  0
   25.7356   25.3229   24.2316 C   0  0  0  0  0  0  0  0  0  0  0  0
   25.4574   25.1579   22.7877 C   0  0  0  0  0  0  0  0  0  0  0  0
   26.0236   25.8991   21.9393 O   0  0  0  0  0  0  0  0  0  0  0  0
   24.5661   24.1807   22.3518 O   0  0  0  0  0  0  0  0  0  0  0  0
   26.6335   26.3058   24.6816 C   0  0  0  0  0  0  0  0  0  0  0  0
   26.8932   26.4586   26.0464 C   0  0  0  0  0  0  0  0  0  0  0  0
   26.6318   27.1493   28.9671 C   0  0  0  0  0  0  0  0  0  0  0  0
   26.5200   27.1358   30.4935 C   0  0  0  0  0  0  0  0  0  0  0  0
  1  2  1  0
  2  3  2  0
  2  4  1  0
  4  5  2  0
  5  6  1  0
  6  7  2  0
  7  8  1  0
  8  9  2  0
  9 10  1  0
 10 11  2  0
 11 12  1  0
 12 13  2  0
 13 14  1  0
 14 15  1  0
 15 16  1  0
 16 17  1  0
 17 18  1  0
 18 19  2  0
 19 20  1  0
 20 21  2  0
 21 22  1  0
 22 23  2  0
 22 24  1  0
 21 25  1  0
 25 26  2  0
 17 27  1  0
 27 28  1  0
 13  4  1  0
 28 14  1  0
 12  7  1  0
 26 18  1  0
M  END
>  <AAScore>  (1) 
3.66872116195305

>  <RootName>  (1) 
./4ZLY/04_DeltaGEst/trajectory_03/rank_01/lead_0172

$$$$
