confid_5
     RDKit          3D

 29 32  0  0  0  0  0  0  0  0999 V2000
   24.5700   26.8800   35.5900 N   0  0  0  0  0  0  0  0  0  0  0  0
   25.5000   26.4000   34.6900 C   0  0  0  0  0  0  0  0  0  0  0  0
   25.1700   25.5200   33.9100 O   0  0  0  0  0  0  0  0  0  0  0  0
   26.8400   27.0200   34.7400 C   0  0  0  0  0  0  0  0  0  0  0  0
   27.3800   27.2800   35.9400 N   0  0  0  0  0  0  0  0  0  0  0  0
   28.6200   27.7400   36.0300 N   0  0  0  0  0  0  0  0  0  0  0  0
   29.3800   28.0000   34.9600 C   0  0  0  0  0  0  0  0  0  0  0  0
   30.6700   28.5000   35.1300 C   0  0  0  0  0  0  0  0  0  0  0  0
   31.5400   28.6100   34.0300 C   0  0  0  0  0  0  0  0  0  0  0  0
   31.0900   28.2200   32.7700 C   0  0  0  0  0  0  0  0  0  0  0  0
   29.8000   27.7000   32.6000 C   0  0  0  0  0  0  0  0  0  0  0  0
   28.9600   27.5500   33.7100 C   0  0  0  0  0  0  0  0  0  0  0  0
   27.6600   27.0300   33.5900 C   0  0  0  0  0  0  0  0  0  0  0  0
   27.1600   26.7400   32.3400 N   0  0  0  0  0  0  0  0  0  0  0  0
   33.1929   29.1448   34.2972 S   0  0  0  0  0  6  0  0  0  0  0  0
   33.8501   28.1332   35.1919 O   0  0  0  0  0  0  0  0  0  0  0  0
   33.9655   29.1794   33.0091 O   0  0  0  0  0  0  0  0  0  0  0  0
   33.1877   30.7411   35.1387 C   0  0  1  0  0  0  0  0  0  0  0  0
   34.5651   31.3768   35.2221 C   0  0  0  0  0  0  0  0  0  0  0  0
   34.1097   32.6546   34.6305 N   0  0  0  0  0  0  0  0  0  0  0  0
   32.7735   32.0453   34.4255 C   0  0  1  0  0  0  0  0  0  0  0  0
   32.4282   31.9867   32.9167 C   0  0  0  0  0  0  0  0  0  0  0  0
   30.9171   31.8948   32.6867 C   0  0  0  0  0  0  0  0  0  0  0  0
   34.1072   33.7332   35.6560 C   0  0  0  0  0  0  0  0  0  0  0  0
   34.2045   35.1570   35.0399 C   0  0  0  0  0  0  0  0  0  0  0  0
   34.3402   36.2359   36.1348 C   0  0  0  0  0  0  0  0  0  0  0  0
   33.1200   35.5252   34.0164 C   0  0  0  0  0  0  0  0  0  0  0  0
   34.1952   35.6771   32.9440 C   0  0  0  0  0  0  0  0  0  0  0  0
   35.2779   35.3003   33.9488 C   0  0  0  0  0  0  0  0  0  0  0  0
  1  2  1  0
  2  3  2  0
  2  4  1  0
  4  5  2  0
  5  6  1  0
  6  7  2  0
  7  8  1  0
  8  9  2  0
  9 10  1  0
 10 11  2  0
 11 12  1  0
 12 13  2  0
 13 14  1  0
  9 15  1  0
 15 16  2  0
 15 17  2  0
 18 15  1  6
 18 19  1  0
 19 20  1  0
 20 21  1  0
 21 22  1  6
 22 23  1  0
 20 24  1  0
 24 25  1  0
 25 26  1  0
 25 27  1  0
 27 28  1  0
 28 29  1  0
 13  4  1  0
 21 18  1  0
 29 25  1  0
 12  7  1  0
M  END
>  <AAScore>  (1) 
-6.414077627224685

>  <RootName>  (1) 
./4ZLY/04_DeltaGEst/trajectory_05/rank_01/lead_0020

$$$$
