confid_8
     RDKit          3D

 27 30  0  0  0  0  0  0  0  0999 V2000
   24.5500   26.3900   36.2500 N   0  0  0  0  0  0  0  0  0  0  0  0
   25.6000   26.1300   35.4000 C   0  0  0  0  0  0  0  0  0  0  0  0
   25.4300   25.4300   34.4200 O   0  0  0  0  0  0  0  0  0  0  0  0
   26.9800   26.6300   35.7100 C   0  0  0  0  0  0  0  0  0  0  0  0
   27.3200   26.8200   36.9800 N   0  0  0  0  0  0  0  0  0  0  0  0
   28.4700   27.4000   37.3100 N   0  0  0  0  0  0  0  0  0  0  0  0
   29.4000   27.6300   36.3700 C   0  0  0  0  0  0  0  0  0  0  0  0
   30.6600   28.0500   36.8000 C   0  0  0  0  0  0  0  0  0  0  0  0
   31.5700   28.3600   35.7800 C   0  0  0  0  0  0  0  0  0  0  0  0
   31.3700   28.1000   34.4300 C   0  0  0  0  0  0  0  0  0  0  0  0
   30.1200   27.5900   34.0500 C   0  0  0  0  0  0  0  0  0  0  0  0
   29.1500   27.3400   35.0300 C   0  0  0  0  0  0  0  0  0  0  0  0
   27.8800   26.8900   34.6600 C   0  0  0  0  0  0  0  0  0  0  0  0
   27.4800   26.6100   33.3700 N   0  0  0  0  0  0  0  0  0  0  0  0
   31.0056   28.2817   38.2255 C   0  0  0  0  0  0  0  0  0  0  0  0
   30.8014   27.2717   39.1815 C   0  0  0  0  0  0  0  0  0  0  0  0
   31.1447   27.4848   40.5202 C   0  0  0  0  0  0  0  0  0  0  0  0
   30.9382   26.4716   41.4613 O   0  0  0  0  0  0  0  0  0  0  0  0
   31.5839   26.4666   42.7364 C   0  0  0  0  0  0  0  0  0  0  0  0
   31.7210   27.8282   43.2705 N   0  0  0  0  0  0  0  0  0  0  0  0
   31.8382   28.0301   44.7198 C   0  0  0  0  0  0  0  0  0  0  0  0
   30.6017   28.7404   45.2592 C   0  0  0  0  0  0  0  0  0  0  0  0
   31.9486   28.9165   42.3550 C   0  0  0  0  0  0  0  0  0  0  0  0
   32.3563   30.0335   42.7770 O   0  0  0  0  0  0  0  0  0  0  0  0
   31.6780   28.7161   40.9219 C   0  0  0  0  0  0  0  0  0  0  0  0
   31.8913   29.7262   39.9717 C   0  0  0  0  0  0  0  0  0  0  0  0
   31.5640   29.5063   38.6305 C   0  0  0  0  0  0  0  0  0  0  0  0
  1  2  1  0
  2  3  2  0
  2  4  1  0
  4  5  2  0
  5  6  1  0
  6  7  2  0
  7  8  1  0
  8  9  2  0
  9 10  1  0
 10 11  2  0
 11 12  1  0
 12 13  2  0
 13 14  1  0
  8 15  1  0
 15 16  2  0
 16 17  1  0
 17 18  1  0
 18 19  1  0
 19 20  1  0
 20 21  1  0
 21 22  1  0
 20 23  1  0
 23 24  2  0
 23 25  1  0
 25 26  1  0
 26 27  2  0
 13  4  1  0
 27 15  1  0
 12  7  1  0
 25 17  2  0
M  END
>  <AAScore>  (1) 
1760.0864995734844

>  <RootName>  (1) 
./4ZLY/04_DeltaGEst/trajectory_01/rank_01/lead_0003

$$$$
