confid_6
     RDKit          3D

 29 32  0  0  0  0  0  0  0  0999 V2000
   24.6900   26.1200   35.5300 N   0  0  0  0  0  0  0  0  0  0  0  0
   25.6600   25.6700   34.6600 C   0  0  0  0  0  0  0  0  0  0  0  0
   25.2400   25.0100   33.7200 O   0  0  0  0  0  0  0  0  0  0  0  0
   27.0300   26.2200   34.8800 C   0  0  0  0  0  0  0  0  0  0  0  0
   27.3500   26.7300   36.0700 N   0  0  0  0  0  0  0  0  0  0  0  0
   28.5700   27.1800   36.3300 N   0  0  0  0  0  0  0  0  0  0  0  0
   29.5300   27.1100   35.3900 C   0  0  0  0  0  0  0  0  0  0  0  0
   30.8300   27.5700   35.6500 C   0  0  0  0  0  0  0  0  0  0  0  0
   31.8500   27.5400   34.6900 C   0  0  0  0  0  0  0  0  0  0  0  0
   31.5100   27.1200   33.4000 C   0  0  0  0  0  0  0  0  0  0  0  0
   30.2200   26.6300   33.1100 C   0  0  0  0  0  0  0  0  0  0  0  0
   29.2400   26.6600   34.1000 C   0  0  0  0  0  0  0  0  0  0  0  0
   27.9300   26.2600   33.8100 C   0  0  0  0  0  0  0  0  0  0  0  0
   27.5200   25.7100   32.6100 N   0  0  0  0  0  0  0  0  0  0  0  0
   31.1750   28.0629   37.0099 C   0  0  0  0  0  0  0  0  0  0  0  0
   31.0385   27.0888   38.1156 C   0  0  0  0  0  0  0  0  0  0  0  0
   30.8483   27.3782   39.4042 C   0  0  0  0  0  0  0  0  0  0  0  0
   30.4297   26.3554   40.3960 C   0  0  0  0  0  0  0  0  0  0  0  0
   30.1290   27.1518   41.5769 N   0  0  0  0  0  0  0  0  0  0  0  0
   29.6422   26.6184   42.8190 C   0  0  0  0  0  0  0  0  0  0  0  0
   29.4078   27.3987   43.7821 O   0  0  0  0  0  0  0  0  0  0  0  0
   29.4006   25.1440   42.9776 C   0  0  0  0  0  0  0  0  0  0  0  0
   28.9771   24.8583   44.2949 O   0  0  0  0  0  0  0  0  0  0  0  0
   28.7518   23.4725   44.4228 C   0  0  0  0  0  0  0  0  0  0  0  0
   30.3903   28.5707   41.3553 C   0  0  0  0  0  0  0  0  0  0  0  0
   30.8693   28.6784   39.9817 N   0  0  0  0  0  0  0  0  0  0  0  0
   31.7500   29.7393   39.5994 C   0  0  0  0  0  0  0  0  0  0  0  0
   32.1146   29.9974   38.3450 C   0  0  0  0  0  0  0  0  0  0  0  0
   31.6352   29.3211   37.1292 C   0  0  0  0  0  0  0  0  0  0  0  0
  1  2  1  0
  2  3  2  0
  2  4  1  0
  4  5  2  0
  5  6  1  0
  6  7  2  0
  7  8  1  0
  8  9  2  0
  9 10  1  0
 10 11  2  0
 11 12  1  0
 12 13  2  0
 13 14  1  0
  8 15  1  0
 15 16  1  0
 16 17  2  0
 17 18  1  0
 18 19  1  0
 19 20  1  0
 20 21  2  0
 20 22  1  0
 22 23  1  0
 23 24  1  0
 19 25  1  0
 25 26  1  0
 26 27  1  0
 27 28  2  0
 28 29  1  0
 13  4  1  0
 29 15  2  0
 12  7  1  0
 26 17  1  0
M  END
>  <AAScore>  (1) 
-4.2404501135690325

>  <RootName>  (1) 
./4ZLY/04_DeltaGEst/trajectory_02/rank_01/lead_0462

$$$$
