confid_7
     RDKit          3D

 29 33  0  0  0  0  0  0  0  0999 V2000
   24.6900   26.1200   35.5300 N   0  0  0  0  0  0  0  0  0  0  0  0
   25.6600   25.6700   34.6600 C   0  0  0  0  0  0  0  0  0  0  0  0
   25.2400   25.0100   33.7200 O   0  0  0  0  0  0  0  0  0  0  0  0
   27.0300   26.2200   34.8800 C   0  0  0  0  0  0  0  0  0  0  0  0
   27.3500   26.7300   36.0700 N   0  0  0  0  0  0  0  0  0  0  0  0
   28.5700   27.1800   36.3300 N   0  0  0  0  0  0  0  0  0  0  0  0
   29.5300   27.1100   35.3900 C   0  0  0  0  0  0  0  0  0  0  0  0
   30.8300   27.5700   35.6500 C   0  0  0  0  0  0  0  0  0  0  0  0
   31.8500   27.5400   34.6900 C   0  0  0  0  0  0  0  0  0  0  0  0
   31.5100   27.1200   33.4000 C   0  0  0  0  0  0  0  0  0  0  0  0
   30.2200   26.6300   33.1100 C   0  0  0  0  0  0  0  0  0  0  0  0
   29.2400   26.6600   34.1000 C   0  0  0  0  0  0  0  0  0  0  0  0
   27.9300   26.2600   33.8100 C   0  0  0  0  0  0  0  0  0  0  0  0
   27.5200   25.7100   32.6100 N   0  0  0  0  0  0  0  0  0  0  0  0
   31.1475   28.0637   36.9628 N   0  0  0  0  0  0  0  0  0  0  0  0
   32.1802   27.3999   37.7627 C   0  0  0  0  0  0  0  0  0  0  0  0
   32.1161   27.8702   39.2237 C   0  0  0  0  0  0  0  0  0  0  0  0
   30.7211   28.0870   39.6725 N   0  0  0  0  0  0  0  0  0  0  0  0
   29.9185   26.8431   39.7238 C   0  0  0  0  0  0  0  0  0  0  0  0
   30.4691   25.8799   40.7319 C   0  0  0  0  0  0  0  0  0  0  0  0
   31.1364   24.6907   40.4489 C   0  0  0  0  0  0  0  0  0  0  0  0
   31.5363   24.1709   41.6174 N   0  0  0  0  0  0  0  0  0  0  0  0
   32.3850   23.0833   42.0309 C   0  0  0  0  0  0  0  0  0  0  0  0
   32.4937   23.2858   43.5658 C   0  0  0  0  0  0  0  0  0  0  0  0
   31.7082   24.5814   43.9130 C   0  0  0  0  0  0  0  0  0  0  0  0
   31.1800   24.9727   42.5942 C   0  0  0  0  0  0  0  0  0  0  0  0
   30.5060   26.0745   42.1145 C   0  0  0  0  0  0  0  0  0  0  0  0
   30.0402   29.1550   38.8940 C   0  0  0  0  0  0  0  0  0  0  0  0
   30.5583   29.3138   37.4481 C   0  0  0  0  0  0  0  0  0  0  0  0
  1  2  1  0
  2  3  2  0
  2  4  1  0
  4  5  2  0
  5  6  1  0
  6  7  2  0
  7  8  1  0
  8  9  2  0
  9 10  1  0
 10 11  2  0
 11 12  1  0
 12 13  2  0
 13 14  1  0
  8 15  1  0
 15 16  1  0
 16 17  1  0
 17 18  1  0
 18 19  1  0
 19 20  1  0
 20 21  2  0
 21 22  1  0
 22 23  1  0
 23 24  1  0
 24 25  1  0
 25 26  1  0
 26 27  2  0
 18 28  1  0
 28 29  1  0
 13  4  1  0
 29 15  1  0
 12  7  1  0
 27 20  1  0
 26 22  1  0
M  END
>  <AAScore>  (1) 
29.20178607273804

>  <RootName>  (1) 
./4ZLY/04_DeltaGEst/trajectory_02/rank_01/lead_0329

$$$$
