confid_2
     RDKit          3D

 29 32  0  0  0  0  0  0  0  0999 V2000
   25.3300   26.2600   34.7600 N   0  0  0  0  0  0  0  0  0  0  0  0
   26.1200   25.9200   33.6900 C   0  0  0  0  0  0  0  0  0  0  0  0
   25.6300   25.1100   32.9400 O   0  0  0  0  0  0  0  0  0  0  0  0
   27.5200   26.3800   33.4600 C   0  0  0  0  0  0  0  0  0  0  0  0
   28.1600   26.6300   34.6100 N   0  0  0  0  0  0  0  0  0  0  0  0
   29.4800   26.8500   34.5700 N   0  0  0  0  0  0  0  0  0  0  0  0
   30.1900   26.7800   33.4400 C   0  0  0  0  0  0  0  0  0  0  0  0
   31.5600   27.0500   33.5000 C   0  0  0  0  0  0  0  0  0  0  0  0
   32.2700   27.2400   32.3100 C   0  0  0  0  0  0  0  0  0  0  0  0
   31.6100   27.2500   31.0800 C   0  0  0  0  0  0  0  0  0  0  0  0
   30.2700   26.8700   31.0600 C   0  0  0  0  0  0  0  0  0  0  0  0
   29.5100   26.6900   32.2300 C   0  0  0  0  0  0  0  0  0  0  0  0
   28.1400   26.4100   32.2000 C   0  0  0  0  0  0  0  0  0  0  0  0
   27.4300   26.1300   31.0500 N   0  0  0  0  0  0  0  0  0  0  0  0
   27.5838   24.8231   30.3974 C   0  0  0  0  0  0  0  0  0  0  0  0
   27.5358   24.9756   28.8734 C   0  0  0  0  0  0  0  0  0  0  0  0
   26.3928   25.7990   28.4438 N   0  0  0  0  0  0  0  0  0  0  0  0
   25.8629   25.6309   27.1167 C   0  0  0  0  0  0  0  0  0  0  0  0
   24.6184   25.5131   26.9552 O   0  0  0  0  0  0  0  0  0  0  0  0
   26.7408   25.5831   25.9352 C   0  0  0  0  0  0  0  0  0  0  0  0
   28.0067   26.1500   25.8188 C   0  0  0  0  0  0  0  0  0  0  0  0
   28.5773   25.9797   24.5516 C   0  0  0  0  0  0  0  0  0  0  0  0
   27.7584   25.2880   23.6645 C   0  0  0  0  0  0  0  0  0  0  0  0
   28.0819   24.9712   22.2628 C   0  0  0  0  0  0  0  0  0  0  0  0
   29.1912   25.3263   21.7815 O   0  0  0  0  0  0  0  0  0  0  0  0
   27.1104   24.2287   21.3999 C   0  0  0  0  0  0  0  0  0  0  0  0
   26.3239   24.8967   24.4564 S   0  0  0  0  0  0  0  0  0  0  0  0
   25.5995   26.5401   29.4323 C   0  0  0  0  0  0  0  0  0  0  0  0
   26.5047   27.1366   30.5135 C   0  0  0  0  0  0  0  0  0  0  0  0
  1  2  1  0
  2  3  2  0
  2  4  1  0
  4  5  2  0
  5  6  1  0
  6  7  2  0
  7  8  1  0
  8  9  2  0
  9 10  1  0
 10 11  2  0
 11 12  1  0
 12 13  2  0
 13 14  1  0
 14 15  1  0
 15 16  1  0
 16 17  1  0
 17 18  1  0
 18 19  2  0
 18 20  1  0
 20 21  2  0
 21 22  1  0
 22 23  2  0
 23 24  1  0
 24 25  2  0
 24 26  1  0
 23 27  1  0
 17 28  1  0
 28 29  1  0
 13  4  1  0
 29 14  1  0
 12  7  1  0
 27 20  1  0
M  END
>  <AAScore>  (1) 
167.21131182809057

>  <RootName>  (1) 
./4ZLY/04_DeltaGEst/trajectory_03/rank_01/lead_0056

$$$$
