confid_10
     RDKit          3D

 26 28  0  0  0  0  0  0  0  0999 V2000
   24.5700   26.8800   35.5900 N   0  0  0  0  0  0  0  0  0  0  0  0
   25.5000   26.4000   34.6900 C   0  0  0  0  0  0  0  0  0  0  0  0
   25.1700   25.5200   33.9100 O   0  0  0  0  0  0  0  0  0  0  0  0
   26.8400   27.0200   34.7400 C   0  0  0  0  0  0  0  0  0  0  0  0
   27.3800   27.2800   35.9400 N   0  0  0  0  0  0  0  0  0  0  0  0
   28.6200   27.7400   36.0300 N   0  0  0  0  0  0  0  0  0  0  0  0
   29.3800   28.0000   34.9600 C   0  0  0  0  0  0  0  0  0  0  0  0
   30.6700   28.5000   35.1300 C   0  0  0  0  0  0  0  0  0  0  0  0
   31.5400   28.6100   34.0300 C   0  0  0  0  0  0  0  0  0  0  0  0
   31.0900   28.2200   32.7700 C   0  0  0  0  0  0  0  0  0  0  0  0
   29.8000   27.7000   32.6000 C   0  0  0  0  0  0  0  0  0  0  0  0
   28.9600   27.5500   33.7100 C   0  0  0  0  0  0  0  0  0  0  0  0
   27.6600   27.0300   33.5900 C   0  0  0  0  0  0  0  0  0  0  0  0
   27.1600   26.7400   32.3400 N   0  0  0  0  0  0  0  0  0  0  0  0
   33.1601   29.2639   34.2520 S   0  0  0  0  0  6  0  0  0  0  0  0
   33.7968   28.5954   35.4382 O   0  0  0  0  0  0  0  0  0  0  0  0
   33.9985   28.9863   33.0349 O   0  0  0  0  0  0  0  0  0  0  0  0
   33.0546   31.0360   34.5354 C   0  0  2  0  0  0  0  0  0  0  0  0
   32.4976   31.7700   33.3146 C   0  0  0  0  0  0  0  0  0  0  0  0
   33.6211   32.4249   32.6200 N   0  0  0  0  0  0  0  0  0  0  0  0
   33.3648   33.8563   32.3037 C   0  0  2  0  0  0  0  0  0  0  0  0
   34.3233   34.3573   31.2036 C   0  0  0  0  0  0  0  0  0  0  0  0
   34.1973   33.5416   29.9173 C   0  0  0  0  0  0  0  0  0  0  0  0
   33.4182   34.7854   33.5366 C   0  0  0  0  0  0  0  0  0  0  0  0
   34.8462   32.1508   33.3889 C   0  0  0  0  0  0  0  0  0  0  0  0
   34.4268   31.6456   34.7551 C   0  0  0  0  0  0  0  0  0  0  0  0
  1  2  1  0
  2  3  2  0
  2  4  1  0
  4  5  2  0
  5  6  1  0
  6  7  2  0
  7  8  1  0
  8  9  2  0
  9 10  1  0
 10 11  2  0
 11 12  1  0
 12 13  2  0
 13 14  1  0
  9 15  1  0
 15 16  2  0
 15 17  2  0
 18 15  1  6
 18 19  1  0
 19 20  1  0
 20 21  1  0
 21 22  1  0
 22 23  1  0
 21 24  1  1
 20 25  1  0
 25 26  1  0
 13  4  1  0
 26 18  1  0
 12  7  1  0
M  END
>  <AAScore>  (1) 
14.62484216581738

>  <RootName>  (1) 
./4ZLY/04_DeltaGEst/trajectory_05/rank_01/lead_0129

$$$$
