confid_13
     RDKit          3D

 27 30  0  0  0  0  0  0  0  0999 V2000
   24.2000   26.2400   35.6900 N   0  0  0  0  0  0  0  0  0  0  0  0
   24.8500   26.2800   34.4800 C   0  0  0  0  0  0  0  0  0  0  0  0
   24.3100   25.7400   33.5400 O   0  0  0  0  0  0  0  0  0  0  0  0
   26.1800   26.9700   34.4700 C   0  0  0  0  0  0  0  0  0  0  0  0
   26.6500   27.6000   35.5500 N   0  0  0  0  0  0  0  0  0  0  0  0
   27.7900   28.2700   35.6200 N   0  0  0  0  0  0  0  0  0  0  0  0
   28.5400   28.3000   34.5100 C   0  0  0  0  0  0  0  0  0  0  0  0
   29.7700   28.9400   34.5600 C   0  0  0  0  0  0  0  0  0  0  0  0
   30.7000   28.8900   33.5000 C   0  0  0  0  0  0  0  0  0  0  0  0
   30.3700   28.1400   32.3700 C   0  0  0  0  0  0  0  0  0  0  0  0
   29.1200   27.5200   32.2800 C   0  0  0  0  0  0  0  0  0  0  0  0
   28.2100   27.6100   33.3300 C   0  0  0  0  0  0  0  0  0  0  0  0
   26.9700   26.9700   33.3100 C   0  0  0  0  0  0  0  0  0  0  0  0
   26.5300   26.2400   32.2200 N   0  0  0  0  0  0  0  0  0  0  0  0
   30.1389   29.6814   35.7394 N   0  0  0  0  0  0  0  0  0  0  0  0
   29.3579   30.8735   36.1154 C   0  0  0  0  0  0  0  0  0  0  0  0
   30.2206   32.1451   36.2442 C   0  0  0  0  0  0  0  0  0  0  0  0
   31.4721   32.0951   35.3957 C   0  0  0  0  0  0  0  0  0  0  0  0
   31.6043   32.9423   34.2858 C   0  0  0  0  0  0  0  0  0  0  0  0
   32.7421   32.8786   33.4797 C   0  0  0  0  0  0  0  0  0  0  0  0
   33.7633   31.9657   33.7589 C   0  0  0  0  0  0  0  0  0  0  0  0
   34.8807   31.9388   32.9110 O   0  0  0  0  0  0  0  0  0  0  0  0
   35.9875   31.0564   33.0658 C   0  0  0  0  0  0  0  0  0  0  0  0
   33.6359   31.1079   34.8675 C   0  0  0  0  0  0  0  0  0  0  0  0
   32.4976   31.1671   35.6886 C   0  0  0  0  0  0  0  0  0  0  0  0
   32.3414   30.1980   36.8394 C   0  0  0  0  0  0  0  0  0  0  0  0
   31.2205   29.1678   36.5979 C   0  0  0  0  0  0  0  0  0  0  0  0
  1  2  1  0
  2  3  2  0
  2  4  1  0
  4  5  2  0
  5  6  1  0
  6  7  2  0
  7  8  1  0
  8  9  2  0
  9 10  1  0
 10 11  2  0
 11 12  1  0
 12 13  2  0
 13 14  1  0
  8 15  1  0
 15 16  1  0
 16 17  1  0
 17 18  1  0
 18 19  2  0
 19 20  1  0
 20 21  2  0
 21 22  1  0
 22 23  1  0
 21 24  1  0
 24 25  2  0
 25 26  1  0
 26 27  1  0
 13  4  1  0
 27 15  1  0
 12  7  1  0
 25 18  1  0
M  END
>  <AAScore>  (1) 
-7.78744544439417

>  <RootName>  (1) 
./4ZLY/04_DeltaGEst/trajectory_04/rank_01/lead_0035

$$$$
