confid_6
     RDKit          3D

 29 31  0  0  0  0  0  0  0  0999 V2000
   24.5700   26.8800   35.5900 N   0  0  0  0  0  0  0  0  0  0  0  0
   25.5000   26.4000   34.6900 C   0  0  0  0  0  0  0  0  0  0  0  0
   25.1700   25.5200   33.9100 O   0  0  0  0  0  0  0  0  0  0  0  0
   26.8400   27.0200   34.7400 C   0  0  0  0  0  0  0  0  0  0  0  0
   27.3800   27.2800   35.9400 N   0  0  0  0  0  0  0  0  0  0  0  0
   28.6200   27.7400   36.0300 N   0  0  0  0  0  0  0  0  0  0  0  0
   29.3800   28.0000   34.9600 C   0  0  0  0  0  0  0  0  0  0  0  0
   30.6700   28.5000   35.1300 C   0  0  0  0  0  0  0  0  0  0  0  0
   31.5400   28.6100   34.0300 C   0  0  0  0  0  0  0  0  0  0  0  0
   31.0900   28.2200   32.7700 C   0  0  0  0  0  0  0  0  0  0  0  0
   29.8000   27.7000   32.6000 C   0  0  0  0  0  0  0  0  0  0  0  0
   28.9600   27.5500   33.7100 C   0  0  0  0  0  0  0  0  0  0  0  0
   27.6600   27.0300   33.5900 C   0  0  0  0  0  0  0  0  0  0  0  0
   27.1600   26.7400   32.3400 N   0  0  0  0  0  0  0  0  0  0  0  0
   33.1618   29.2882   34.2274 S   0  0  0  0  0  6  0  0  0  0  0  0
   33.2115   30.0842   35.5017 O   0  0  0  0  0  0  0  0  0  0  0  0
   33.4007   30.2385   33.0879 O   0  0  0  0  0  0  0  0  0  0  0  0
   34.5247   28.0999   34.2449 C   0  0  2  0  0  0  0  0  0  0  0  0
   34.4018   26.9631   33.2383 C   0  0  0  0  0  0  0  0  0  0  0  0
   34.4609   25.9314   34.2838 N   0  0  0  0  0  0  0  0  0  0  0  0
   35.6184   25.0043   34.1539 C   0  0  2  0  0  0  0  0  0  0  0  0
   35.4777   23.8393   35.1543 C   0  0  0  0  0  0  0  0  0  0  0  0
   34.0785   23.1819   35.2189 C   0  0  0  0  0  0  0  0  0  0  0  0
   33.5688   22.4401   33.9538 C   0  0  0  0  0  0  0  0  0  0  0  0
   32.8810   23.3689   32.9412 C   0  0  0  0  0  0  0  0  0  0  0  0
   34.6394   21.5716   33.2811 C   0  0  0  0  0  0  0  0  0  0  0  0
   37.0227   25.6472   34.2841 C   0  0  0  0  0  0  0  0  0  0  0  0
   34.5608   26.9877   35.3046 C   0  0  2  0  0  0  0  0  0  0  0  0
   33.3891   26.8859   36.2807 C   0  0  0  0  0  0  0  0  0  0  0  0
  1  2  1  0
  2  3  2  0
  2  4  1  0
  4  5  2  0
  5  6  1  0
  6  7  2  0
  7  8  1  0
  8  9  2  0
  9 10  1  0
 10 11  2  0
 11 12  1  0
 12 13  2  0
 13 14  1  0
  9 15  1  0
 15 16  2  0
 15 17  2  0
 18 15  1  1
 18 19  1  0
 19 20  1  0
 20 21  1  0
 21 22  1  0
 22 23  1  0
 23 24  1  0
 24 25  1  0
 24 26  1  0
 21 27  1  1
 20 28  1  0
 28 29  1  1
 13  4  1  0
 28 18  1  0
 12  7  1  0
M  END
>  <AAScore>  (1) 
822.2381114276297

>  <RootName>  (1) 
./4ZLY/04_DeltaGEst/trajectory_05/rank_01/lead_0193

$$$$
