confid_8
     RDKit          3D

 27 30  0  0  0  0  0  0  0  0999 V2000
   24.5500   26.3900   36.2500 N   0  0  0  0  0  0  0  0  0  0  0  0
   25.6000   26.1300   35.4000 C   0  0  0  0  0  0  0  0  0  0  0  0
   25.4300   25.4300   34.4200 O   0  0  0  0  0  0  0  0  0  0  0  0
   26.9800   26.6300   35.7100 C   0  0  0  0  0  0  0  0  0  0  0  0
   27.3200   26.8200   36.9800 N   0  0  0  0  0  0  0  0  0  0  0  0
   28.4700   27.4000   37.3100 N   0  0  0  0  0  0  0  0  0  0  0  0
   29.4000   27.6300   36.3700 C   0  0  0  0  0  0  0  0  0  0  0  0
   30.6600   28.0500   36.8000 C   0  0  0  0  0  0  0  0  0  0  0  0
   31.5700   28.3600   35.7800 C   0  0  0  0  0  0  0  0  0  0  0  0
   31.3700   28.1000   34.4300 C   0  0  0  0  0  0  0  0  0  0  0  0
   30.1200   27.5900   34.0500 C   0  0  0  0  0  0  0  0  0  0  0  0
   29.1500   27.3400   35.0300 C   0  0  0  0  0  0  0  0  0  0  0  0
   27.8800   26.8900   34.6600 C   0  0  0  0  0  0  0  0  0  0  0  0
   27.4800   26.6100   33.3700 N   0  0  0  0  0  0  0  0  0  0  0  0
   30.9781   28.2734   38.1833 N   0  0  0  0  0  0  0  0  0  0  0  0
   32.1249   27.5750   38.7905 C   0  0  0  0  0  0  0  0  0  0  0  0
   31.7206   26.9483   40.1389 C   0  0  0  0  0  0  0  0  0  0  0  0
   30.8813   27.9141   40.9223 C   0  0  0  0  0  0  0  0  0  0  0  0
   30.2165   28.9782   40.3697 C   0  0  0  0  0  0  0  0  0  0  0  0
   29.4838   29.6042   41.3068 N   0  0  0  0  0  0  0  0  0  0  0  0
   29.6482   28.9484   42.4521 N   0  0  0  0  0  0  0  0  0  0  0  0
   28.9315   29.3520   43.6728 C   0  0  0  0  0  0  0  0  0  0  0  0
   29.8475   29.4196   44.9000 C   0  0  0  0  0  0  0  0  0  0  0  0
   27.7086   28.4621   43.9103 C   0  0  0  0  0  0  0  0  0  0  0  0
   30.4773   27.8863   42.2439 C   0  0  0  0  0  0  0  0  0  0  0  0
   30.9180   26.8727   43.2609 C   0  0  0  0  0  0  0  0  0  0  0  0
   30.3292   29.3650   38.9292 C   0  0  0  0  0  0  0  0  0  0  0  0
  1  2  1  0
  2  3  2  0
  2  4  1  0
  4  5  2  0
  5  6  1  0
  6  7  2  0
  7  8  1  0
  8  9  2  0
  9 10  1  0
 10 11  2  0
 11 12  1  0
 12 13  2  0
 13 14  1  0
  8 15  1  0
 15 16  1  0
 16 17  1  0
 17 18  1  0
 18 19  1  0
 19 20  2  0
 20 21  1  0
 21 22  1  0
 22 23  1  0
 22 24  1  0
 21 25  1  0
 25 26  1  0
 19 27  1  0
 13  4  1  0
 27 15  1  0
 12  7  1  0
 25 18  2  0
M  END
>  <AAScore>  (1) 
47.45547702778189

>  <RootName>  (1) 
./4ZLY/04_DeltaGEst/trajectory_01/rank_01/lead_0312

$$$$
