confid_9
     RDKit          3D

 27 30  0  0  0  0  0  0  0  0999 V2000
   24.5500   26.3900   36.2500 N   0  0  0  0  0  0  0  0  0  0  0  0
   25.6000   26.1300   35.4000 C   0  0  0  0  0  0  0  0  0  0  0  0
   25.4300   25.4300   34.4200 O   0  0  0  0  0  0  0  0  0  0  0  0
   26.9800   26.6300   35.7100 C   0  0  0  0  0  0  0  0  0  0  0  0
   27.3200   26.8200   36.9800 N   0  0  0  0  0  0  0  0  0  0  0  0
   28.4700   27.4000   37.3100 N   0  0  0  0  0  0  0  0  0  0  0  0
   29.4000   27.6300   36.3700 C   0  0  0  0  0  0  0  0  0  0  0  0
   30.6600   28.0500   36.8000 C   0  0  0  0  0  0  0  0  0  0  0  0
   31.5700   28.3600   35.7800 C   0  0  0  0  0  0  0  0  0  0  0  0
   31.3700   28.1000   34.4300 C   0  0  0  0  0  0  0  0  0  0  0  0
   30.1200   27.5900   34.0500 C   0  0  0  0  0  0  0  0  0  0  0  0
   29.1500   27.3400   35.0300 C   0  0  0  0  0  0  0  0  0  0  0  0
   27.8800   26.8900   34.6600 C   0  0  0  0  0  0  0  0  0  0  0  0
   27.4800   26.6100   33.3700 N   0  0  0  0  0  0  0  0  0  0  0  0
   23.2442   25.7201   36.1409 C   0  0  0  0  0  0  0  0  0  0  0  0
   23.3537   24.2640   36.6339 C   0  0  0  0  0  0  0  0  0  0  0  0
   23.8034   24.2235   38.1048 C   0  0  0  0  0  0  0  0  0  0  0  0
   23.2178   25.3327   38.8744 N   0  0  0  0  0  0  0  0  0  0  0  0
   23.8744   25.8139   40.0642 C   0  0  0  0  0  0  0  0  0  0  0  0
   24.6979   25.0925   40.9088 C   0  0  0  0  0  0  0  0  0  0  0  0
   25.0041   23.7328   40.7946 O   0  0  0  0  0  0  0  0  0  0  0  0
   25.8664   23.0565   41.7008 C   0  0  0  0  0  0  0  0  0  0  0  0
   25.1425   25.9703   41.8806 C   0  0  0  0  0  0  0  0  0  0  0  0
   24.6248   27.1928   41.6520 N   0  0  0  0  0  0  0  0  0  0  0  0
   23.8547   27.1105   40.5493 C   0  0  0  0  0  0  0  0  0  0  0  0
   21.9828   25.9599   38.3836 C   0  0  0  0  0  0  0  0  0  0  0  0
   22.1664   26.4900   36.9483 C   0  0  0  0  0  0  0  0  0  0  0  0
  1  2  1  0
  2  3  2  0
  2  4  1  0
  4  5  2  0
  5  6  1  0
  6  7  2  0
  7  8  1  0
  8  9  2  0
  9 10  1  0
 10 11  2  0
 11 12  1  0
 12 13  2  0
 13 14  1  0
  1 15  1  0
 15 16  1  0
 16 17  1  0
 17 18  1  0
 18 19  1  0
 19 20  1  0
 20 21  1  0
 21 22  1  0
 20 23  2  0
 23 24  1  0
 24 25  1  0
 18 26  1  0
 26 27  1  0
 13  4  1  0
 27 15  1  0
 12  7  1  0
 25 19  2  0
M  END
>  <AAScore>  (1) 
56.335864774088726

>  <RootName>  (1) 
./4ZLY/04_DeltaGEst/trajectory_01/rank_00/lead_0421

$$$$
