confid_12
     RDKit          3D

 28 31  0  0  0  0  0  0  0  0999 V2000
   24.4800   26.1000   36.1300 N   0  0  0  0  0  0  0  0  0  0  0  0
   25.2500   26.2500   34.9900 C   0  0  0  0  0  0  0  0  0  0  0  0
   24.7400   25.7600   33.9900 O   0  0  0  0  0  0  0  0  0  0  0  0
   26.5900   26.8900   34.9600 C   0  0  0  0  0  0  0  0  0  0  0  0
   27.0600   27.2400   36.1600 N   0  0  0  0  0  0  0  0  0  0  0  0
   28.3000   27.7100   36.2400 N   0  0  0  0  0  0  0  0  0  0  0  0
   29.0500   27.9600   35.1500 C   0  0  0  0  0  0  0  0  0  0  0  0
   30.3400   28.4900   35.2600 C   0  0  0  0  0  0  0  0  0  0  0  0
   31.1100   28.8200   34.1400 C   0  0  0  0  0  0  0  0  0  0  0  0
   30.5200   28.6700   32.8800 C   0  0  0  0  0  0  0  0  0  0  0  0
   29.2900   28.0200   32.7700 C   0  0  0  0  0  0  0  0  0  0  0  0
   28.5200   27.7100   33.8900 C   0  0  0  0  0  0  0  0  0  0  0  0
   27.2700   27.0800   33.7600 C   0  0  0  0  0  0  0  0  0  0  0  0
   26.7500   26.8800   32.4900 N   0  0  0  0  0  0  0  0  0  0  0  0
   23.0375   26.0797   36.1667 C   0  0  0  0  0  0  0  0  0  0  0  0
   22.4383   25.6192   37.4641 C   0  0  0  0  0  0  0  0  0  0  0  0
   21.5022   26.2437   38.2109 C   0  0  0  0  0  0  0  0  0  0  0  0
   20.6062   27.1684   37.6143 N   0  0  0  0  0  0  0  0  0  0  0  0
   19.5239   26.7922   36.6894 C   0  0  0  0  0  0  0  0  0  0  0  0
   20.1412   27.4635   35.5198 C   0  0  0  0  0  0  0  0  0  0  0  0
   20.8733   28.1971   36.5925 C   0  0  0  0  0  0  0  0  0  0  0  0
   20.9897   26.4690   34.8194 N   0  0  0  0  0  0  0  0  0  0  0  0
   22.3828   26.4041   35.0710 N   0  0  0  0  0  0  0  0  0  0  0  0
   20.5088   25.8811   33.5434 C   0  0  0  0  0  0  0  0  0  0  0  0
   19.0079   25.5131   33.6182 C   0  0  0  0  0  0  0  0  0  0  0  0
   21.2892   24.5836   33.2316 C   0  0  0  0  0  0  0  0  0  0  0  0
   20.7344   26.8890   32.4022 C   0  0  0  0  0  0  0  0  0  0  0  0
   21.1694   25.7187   39.5739 C   0  0  0  0  0  0  0  0  0  0  0  0
  1  2  1  0
  2  3  2  0
  2  4  1  0
  4  5  2  0
  5  6  1  0
  6  7  2  0
  7  8  1  0
  8  9  2  0
  9 10  1  0
 10 11  2  0
 11 12  1  0
 12 13  2  0
 13 14  1  0
  1 15  1  0
 15 16  1  0
 16 17  2  0
 17 18  1  0
 18 19  1  0
 19 20  1  0
 20 21  1  0
 20 22  1  0
 22 23  1  0
 22 24  1  0
 24 25  1  0
 24 26  1  0
 24 27  1  0
 17 28  1  0
 13  4  1  0
 23 15  2  0
 12  7  1  0
 21 18  1  0
M  END
>  <AAScore>  (1) 
2449.740508111384

>  <RootName>  (1) 
./4ZLY/04_DeltaGEst/trajectory_00/rank_00/lead_0189

$$$$
