confid_5
     RDKit          3D

 25 27  0  0  0  0  0  0  0  0999 V2000
   24.4800   26.1000   36.1300 N   0  0  0  0  0  0  0  0  0  0  0  0
   25.2500   26.2500   34.9900 C   0  0  0  0  0  0  0  0  0  0  0  0
   24.7400   25.7600   33.9900 O   0  0  0  0  0  0  0  0  0  0  0  0
   26.5900   26.8900   34.9600 C   0  0  0  0  0  0  0  0  0  0  0  0
   27.0600   27.2400   36.1600 N   0  0  0  0  0  0  0  0  0  0  0  0
   28.3000   27.7100   36.2400 N   0  0  0  0  0  0  0  0  0  0  0  0
   29.0500   27.9600   35.1500 C   0  0  0  0  0  0  0  0  0  0  0  0
   30.3400   28.4900   35.2600 C   0  0  0  0  0  0  0  0  0  0  0  0
   31.1100   28.8200   34.1400 C   0  0  0  0  0  0  0  0  0  0  0  0
   30.5200   28.6700   32.8800 C   0  0  0  0  0  0  0  0  0  0  0  0
   29.2900   28.0200   32.7700 C   0  0  0  0  0  0  0  0  0  0  0  0
   28.5200   27.7100   33.8900 C   0  0  0  0  0  0  0  0  0  0  0  0
   27.2700   27.0800   33.7600 C   0  0  0  0  0  0  0  0  0  0  0  0
   26.7500   26.8800   32.4900 N   0  0  0  0  0  0  0  0  0  0  0  0
   23.5293   25.0404   36.3557 C   0  0  0  0  0  0  0  0  0  0  0  0
   23.7280   23.7502   35.8287 C   0  0  0  0  0  0  0  0  0  0  0  0
   22.8030   22.7262   36.0829 C   0  0  0  0  0  0  0  0  0  0  0  0
   23.0499   21.1191   35.3999 S   0  0  0  0  0  6  0  0  0  0  0  0
   22.7681   20.0763   36.4448 O   0  0  0  0  0  0  0  0  0  0  0  0
   24.4719   20.9649   34.9375 O   0  0  0  0  0  0  0  0  0  0  0  0
   21.9583   20.8919   34.0144 C   0  0  0  0  0  0  0  0  0  0  0  0
   21.6733   22.9939   36.8717 C   0  0  0  0  0  0  0  0  0  0  0  0
   21.4852   24.2668   37.4158 C   0  0  0  0  0  0  0  0  0  0  0  0
   22.4117   25.2819   37.1673 C   0  0  0  0  0  0  0  0  0  0  0  0
   20.7557   22.0250   37.1177 F   0  0  0  0  0  0  0  0  0  0  0  0
  1  2  1  0
  2  3  2  0
  2  4  1  0
  4  5  2  0
  5  6  1  0
  6  7  2  0
  7  8  1  0
  8  9  2  0
  9 10  1  0
 10 11  2  0
 11 12  1  0
 12 13  2  0
 13 14  1  0
  1 15  1  0
 15 16  2  0
 16 17  1  0
 17 18  1  0
 18 19  2  0
 18 20  2  0
 18 21  1  0
 17 22  2  0
 22 23  1  0
 23 24  2  0
 22 25  1  0
 13  4  1  0
 24 15  1  0
 12  7  1  0
M  END
>  <AAScore>  (1) 
1098.9249028165789

>  <RootName>  (1) 
./4ZLY/04_DeltaGEst/trajectory_00/rank_00/lead_0130

$$$$
