confid_17
     RDKit          3D

 29 33  0  0  0  0  0  0  0  0999 V2000
   25.3300   26.2600   34.7600 N   0  0  0  0  0  0  0  0  0  0  0  0
   26.1200   25.9200   33.6900 C   0  0  0  0  0  0  0  0  0  0  0  0
   25.6300   25.1100   32.9400 O   0  0  0  0  0  0  0  0  0  0  0  0
   27.5200   26.3800   33.4600 C   0  0  0  0  0  0  0  0  0  0  0  0
   28.1600   26.6300   34.6100 N   0  0  0  0  0  0  0  0  0  0  0  0
   29.4800   26.8500   34.5700 N   0  0  0  0  0  0  0  0  0  0  0  0
   30.1900   26.7800   33.4400 C   0  0  0  0  0  0  0  0  0  0  0  0
   31.5600   27.0500   33.5000 C   0  0  0  0  0  0  0  0  0  0  0  0
   32.2700   27.2400   32.3100 C   0  0  0  0  0  0  0  0  0  0  0  0
   31.6100   27.2500   31.0800 C   0  0  0  0  0  0  0  0  0  0  0  0
   30.2700   26.8700   31.0600 C   0  0  0  0  0  0  0  0  0  0  0  0
   29.5100   26.6900   32.2300 C   0  0  0  0  0  0  0  0  0  0  0  0
   28.1400   26.4100   32.2000 C   0  0  0  0  0  0  0  0  0  0  0  0
   27.4300   26.1300   31.0500 N   0  0  0  0  0  0  0  0  0  0  0  0
   26.5201   27.1359   30.4935 C   0  0  0  0  0  0  0  0  0  0  0  0
   26.6298   27.1474   28.9670 C   0  0  0  0  0  0  0  0  0  0  0  0
   26.5242   25.7902   28.4039 N   0  0  0  0  0  0  0  0  0  0  0  0
   26.2534   25.6277   26.9942 C   0  0  0  0  0  0  0  0  0  0  0  0
   25.3673   24.6377   26.5377 C   0  0  0  0  0  0  0  0  0  0  0  0
   25.1095   24.4939   25.1696 C   0  0  0  0  0  0  0  0  0  0  0  0
   24.2418   23.5014   24.7146 O   0  0  0  0  0  0  0  0  0  0  0  0
   25.7345   25.3614   24.2612 C   0  0  0  0  0  0  0  0  0  0  0  0
   25.5135   25.2163   22.7819 C   0  0  0  0  0  0  0  0  0  0  0  0
   25.2531   26.5177   22.0351 C   0  0  0  0  0  0  0  0  0  0  0  0
   24.1071   25.5616   22.3123 C   0  0  0  0  0  0  0  0  0  0  0  0
   26.6019   26.3037   24.7203 N   0  0  0  0  0  0  0  0  0  0  0  0
   26.8662   26.4605   26.0438 C   0  0  0  0  0  0  0  0  0  0  0  0
   26.5460   24.6176   29.2931 C   0  0  0  0  0  0  0  0  0  0  0  0
   27.5663   24.8092   30.4205 C   0  0  0  0  0  0  0  0  0  0  0  0
  1  2  1  0
  2  3  2  0
  2  4  1  0
  4  5  2  0
  5  6  1  0
  6  7  2  0
  7  8  1  0
  8  9  2  0
  9 10  1  0
 10 11  2  0
 11 12  1  0
 12 13  2  0
 13 14  1  0
 14 15  1  0
 15 16  1  0
 16 17  1  0
 17 18  1  0
 18 19  2  0
 19 20  1  0
 20 21  1  0
 20 22  2  0
 22 23  1  0
 23 24  1  0
 24 25  1  0
 22 26  1  0
 26 27  2  0
 17 28  1  0
 28 29  1  0
 13  4  1  0
 29 14  1  0
 12  7  1  0
 27 18  1  0
 25 23  1  0
M  END
>  <AAScore>  (1) 
3.8121489076272463

>  <RootName>  (1) 
./4ZLY/04_DeltaGEst/trajectory_03/rank_01/lead_0454

$$$$
