confid_2
     RDKit          3D

 26 29  0  0  0  0  0  0  0  0999 V2000
   24.4800   26.1000   36.1300 N   0  0  0  0  0  0  0  0  0  0  0  0
   25.2500   26.2500   34.9900 C   0  0  0  0  0  0  0  0  0  0  0  0
   24.7400   25.7600   33.9900 O   0  0  0  0  0  0  0  0  0  0  0  0
   26.5900   26.8900   34.9600 C   0  0  0  0  0  0  0  0  0  0  0  0
   27.0600   27.2400   36.1600 N   0  0  0  0  0  0  0  0  0  0  0  0
   28.3000   27.7100   36.2400 N   0  0  0  0  0  0  0  0  0  0  0  0
   29.0500   27.9600   35.1500 C   0  0  0  0  0  0  0  0  0  0  0  0
   30.3400   28.4900   35.2600 C   0  0  0  0  0  0  0  0  0  0  0  0
   31.1100   28.8200   34.1400 C   0  0  0  0  0  0  0  0  0  0  0  0
   30.5200   28.6700   32.8800 C   0  0  0  0  0  0  0  0  0  0  0  0
   29.2900   28.0200   32.7700 C   0  0  0  0  0  0  0  0  0  0  0  0
   28.5200   27.7100   33.8900 C   0  0  0  0  0  0  0  0  0  0  0  0
   27.2700   27.0800   33.7600 C   0  0  0  0  0  0  0  0  0  0  0  0
   26.7500   26.8800   32.4900 N   0  0  0  0  0  0  0  0  0  0  0  0
   23.4623   25.0974   36.3278 C   0  0  0  0  0  0  0  0  0  0  0  0
   23.5796   23.8094   35.7743 C   0  0  0  0  0  0  0  0  0  0  0  0
   22.5912   22.8372   35.9957 C   0  0  0  0  0  0  0  0  0  0  0  0
   22.7464   21.5434   35.3944 N   0  0  0  0  0  0  0  0  0  0  0  0
   22.0404   20.2483   35.3115 C   0  0  0  0  0  0  0  0  0  0  0  0
   23.0330   19.5791   34.4193 C   0  0  0  0  0  0  0  0  0  0  0  0
   23.7230   18.5518   35.0761 O   0  0  0  0  0  0  0  0  0  0  0  0
   23.7364   20.8937   34.5127 C   0  0  0  0  0  0  0  0  0  0  0  0
   21.4780   23.1564   36.8029 C   0  0  0  0  0  0  0  0  0  0  0  0
   21.3763   24.4298   37.3729 C   0  0  0  0  0  0  0  0  0  0  0  0
   22.3622   25.3902   37.1433 C   0  0  0  0  0  0  0  0  0  0  0  0
   20.1954   22.0027   37.1411 Cl  0  0  0  0  0  0  0  0  0  0  0  0
  1  2  1  0
  2  3  2  0
  2  4  1  0
  4  5  2  0
  5  6  1  0
  6  7  2  0
  7  8  1  0
  8  9  2  0
  9 10  1  0
 10 11  2  0
 11 12  1  0
 12 13  2  0
 13 14  1  0
  1 15  1  0
 15 16  2  0
 16 17  1  0
 17 18  1  0
 18 19  1  0
 19 20  1  0
 20 21  1  0
 20 22  1  0
 17 23  2  0
 23 24  1  0
 24 25  2  0
 23 26  1  0
 13  4  1  0
 25 15  1  0
 12  7  1  0
 22 18  1  0
M  END
>  <AAScore>  (1) 
1541.0284663190112

>  <RootName>  (1) 
./4ZLY/04_DeltaGEst/trajectory_00/rank_00/lead_0091

$$$$
