confid_14
     RDKit          3D

 27 30  0  0  0  0  0  0  0  0999 V2000
   24.5500   26.3900   36.2500 N   0  0  0  0  0  0  0  0  0  0  0  0
   25.6000   26.1300   35.4000 C   0  0  0  0  0  0  0  0  0  0  0  0
   25.4300   25.4300   34.4200 O   0  0  0  0  0  0  0  0  0  0  0  0
   26.9800   26.6300   35.7100 C   0  0  0  0  0  0  0  0  0  0  0  0
   27.3200   26.8200   36.9800 N   0  0  0  0  0  0  0  0  0  0  0  0
   28.4700   27.4000   37.3100 N   0  0  0  0  0  0  0  0  0  0  0  0
   29.4000   27.6300   36.3700 C   0  0  0  0  0  0  0  0  0  0  0  0
   30.6600   28.0500   36.8000 C   0  0  0  0  0  0  0  0  0  0  0  0
   31.5700   28.3600   35.7800 C   0  0  0  0  0  0  0  0  0  0  0  0
   31.3700   28.1000   34.4300 C   0  0  0  0  0  0  0  0  0  0  0  0
   30.1200   27.5900   34.0500 C   0  0  0  0  0  0  0  0  0  0  0  0
   29.1500   27.3400   35.0300 C   0  0  0  0  0  0  0  0  0  0  0  0
   27.8800   26.8900   34.6600 C   0  0  0  0  0  0  0  0  0  0  0  0
   27.4800   26.6100   33.3700 N   0  0  0  0  0  0  0  0  0  0  0  0
   30.9664   28.3051   38.1824 N   0  0  0  0  0  0  0  0  0  0  0  0
   30.2766   29.3751   38.9035 C   0  0  0  0  0  0  0  0  0  0  0  0
   29.8705   28.8720   40.2858 C   0  0  0  0  0  0  0  0  0  0  0  0
   31.0168   28.1859   40.9927 C   0  0  0  0  0  0  0  0  0  0  0  0
   30.9847   28.0245   42.3910 C   0  0  0  0  0  0  0  0  0  0  0  0
   29.9093   28.5390   43.1279 O   0  0  0  0  0  0  0  0  0  0  0  0
   29.8242   28.4818   44.5505 C   0  0  0  0  0  0  0  0  0  0  0  0
   30.7377   29.5235   45.1860 C   0  0  0  0  0  0  0  0  0  0  0  0
   31.9951   27.3618   43.0201 N   0  0  0  0  0  0  0  0  0  0  0  0
   33.0448   26.8344   42.3409 C   0  0  0  0  0  0  0  0  0  0  0  0
   33.1100   26.9520   40.9541 C   0  0  0  0  0  0  0  0  0  0  0  0
   32.0877   27.6163   40.2650 C   0  0  0  0  0  0  0  0  0  0  0  0
   32.1934   27.7547   38.7644 C   0  0  0  0  0  0  0  0  0  0  0  0
  1  2  1  0
  2  3  2  0
  2  4  1  0
  4  5  2  0
  5  6  1  0
  6  7  2  0
  7  8  1  0
  8  9  2  0
  9 10  1  0
 10 11  2  0
 11 12  1  0
 12 13  2  0
 13 14  1  0
  8 15  1  0
 15 16  1  0
 16 17  1  0
 17 18  1  0
 18 19  2  0
 19 20  1  0
 20 21  1  0
 21 22  1  0
 19 23  1  0
 23 24  2  0
 24 25  1  0
 25 26  2  0
 26 27  1  0
 13  4  1  0
 27 15  1  0
 12  7  1  0
 26 18  1  0
M  END
>  <AAScore>  (1) 
51.46155882754062

>  <RootName>  (1) 
./4ZLY/04_DeltaGEst/trajectory_01/rank_01/lead_0047

$$$$
