confid_15
     RDKit          3D

 25 27  0  0  0  0  0  0  0  0999 V2000
   24.4800   26.1000   36.1300 N   0  0  0  0  0  0  0  0  0  0  0  0
   25.2500   26.2500   34.9900 C   0  0  0  0  0  0  0  0  0  0  0  0
   24.7400   25.7600   33.9900 O   0  0  0  0  0  0  0  0  0  0  0  0
   26.5900   26.8900   34.9600 C   0  0  0  0  0  0  0  0  0  0  0  0
   27.0600   27.2400   36.1600 N   0  0  0  0  0  0  0  0  0  0  0  0
   28.3000   27.7100   36.2400 N   0  0  0  0  0  0  0  0  0  0  0  0
   29.0500   27.9600   35.1500 C   0  0  0  0  0  0  0  0  0  0  0  0
   30.3400   28.4900   35.2600 C   0  0  0  0  0  0  0  0  0  0  0  0
   31.1100   28.8200   34.1400 C   0  0  0  0  0  0  0  0  0  0  0  0
   30.5200   28.6700   32.8800 C   0  0  0  0  0  0  0  0  0  0  0  0
   29.2900   28.0200   32.7700 C   0  0  0  0  0  0  0  0  0  0  0  0
   28.5200   27.7100   33.8900 C   0  0  0  0  0  0  0  0  0  0  0  0
   27.2700   27.0800   33.7600 C   0  0  0  0  0  0  0  0  0  0  0  0
   26.7500   26.8800   32.4900 N   0  0  0  0  0  0  0  0  0  0  0  0
   23.0401   26.0374   36.1506 C   0  0  0  0  0  0  0  0  0  0  0  0
   22.2599   26.7016   35.1878 C   0  0  0  0  0  0  0  0  0  0  0  0
   20.8641   26.6297   35.2600 C   0  0  0  0  0  0  0  0  0  0  0  0
   19.8738   27.4354   34.0554 S   0  0  0  0  0  6  0  0  0  0  0  0
   20.2425   28.8914   33.9995 O   0  0  0  0  0  0  0  0  0  0  0  0
   18.4249   27.3098   34.4364 O   0  0  0  0  0  0  0  0  0  0  0  0
   20.1386   26.6696   32.4644 C   0  0  0  0  0  0  0  0  0  0  0  0
   19.2886   27.3355   31.3900 C   0  0  0  0  0  0  0  0  0  0  0  0
   20.2713   25.9318   36.2653 N   0  0  0  0  0  0  0  0  0  0  0  0
   21.0002   25.2975   37.2207 C   0  0  0  0  0  0  0  0  0  0  0  0
   22.3954   25.3455   37.1849 C   0  0  0  0  0  0  0  0  0  0  0  0
  1  2  1  0
  2  3  2  0
  2  4  1  0
  4  5  2  0
  5  6  1  0
  6  7  2  0
  7  8  1  0
  8  9  2  0
  9 10  1  0
 10 11  2  0
 11 12  1  0
 12 13  2  0
 13 14  1  0
  1 15  1  0
 15 16  2  0
 16 17  1  0
 17 18  1  0
 18 19  2  0
 18 20  2  0
 18 21  1  0
 21 22  1  0
 17 23  2  0
 23 24  1  0
 24 25  2  0
 13  4  1  0
 25 15  1  0
 12  7  1  0
M  END
>  <AAScore>  (1) 
162.39708808574932

>  <RootName>  (1) 
./4ZLY/04_DeltaGEst/trajectory_00/rank_00/lead_0295

$$$$
