confid_18
     RDKit          3D

 27 30  0  0  0  0  0  0  0  0999 V2000
   24.5700   26.8800   35.5900 N   0  0  0  0  0  0  0  0  0  0  0  0
   25.5000   26.4000   34.6900 C   0  0  0  0  0  0  0  0  0  0  0  0
   25.1700   25.5200   33.9100 O   0  0  0  0  0  0  0  0  0  0  0  0
   26.8400   27.0200   34.7400 C   0  0  0  0  0  0  0  0  0  0  0  0
   27.3800   27.2800   35.9400 N   0  0  0  0  0  0  0  0  0  0  0  0
   28.6200   27.7400   36.0300 N   0  0  0  0  0  0  0  0  0  0  0  0
   29.3800   28.0000   34.9600 C   0  0  0  0  0  0  0  0  0  0  0  0
   30.6700   28.5000   35.1300 C   0  0  0  0  0  0  0  0  0  0  0  0
   31.5400   28.6100   34.0300 C   0  0  0  0  0  0  0  0  0  0  0  0
   31.0900   28.2200   32.7700 C   0  0  0  0  0  0  0  0  0  0  0  0
   29.8000   27.7000   32.6000 C   0  0  0  0  0  0  0  0  0  0  0  0
   28.9600   27.5500   33.7100 C   0  0  0  0  0  0  0  0  0  0  0  0
   27.6600   27.0300   33.5900 C   0  0  0  0  0  0  0  0  0  0  0  0
   27.1600   26.7400   32.3400 N   0  0  0  0  0  0  0  0  0  0  0  0
   23.2011   26.4267   35.6642 C   0  0  0  0  0  0  0  0  0  0  0  0
   22.6020   25.9074   34.5578 N   0  0  0  0  0  0  0  0  0  0  0  0
   21.3070   25.5046   34.5666 C   0  0  0  0  0  0  0  0  0  0  0  0
   20.6862   24.9530   33.3205 C   0  0  0  0  0  0  0  0  0  0  0  0
   20.5525   25.9675   32.3440 O   0  0  0  0  0  0  0  0  0  0  0  0
   19.3325   26.6550   32.5191 C   0  0  0  0  0  0  0  0  0  0  0  0
   20.5665   25.6392   35.6942 N   0  0  0  0  0  0  0  0  0  0  0  0
   21.0940   26.1635   36.8305 C   0  0  0  0  0  0  0  0  0  0  0  0
   22.4537   26.5519   36.8583 C   0  0  0  0  0  0  0  0  0  0  0  0
   23.0686   27.1581   38.1060 C   0  0  0  0  0  0  0  0  0  0  0  0
   22.2447   26.8997   39.3716 C   0  0  0  0  0  0  0  0  0  0  0  0
   20.7659   27.1827   39.1161 C   0  0  0  0  0  0  0  0  0  0  0  0
   20.2226   26.2210   38.0579 C   0  0  0  0  0  0  0  0  0  0  0  0
  1  2  1  0
  2  3  2  0
  2  4  1  0
  4  5  2  0
  5  6  1  0
  6  7  2  0
  7  8  1  0
  8  9  2  0
  9 10  1  0
 10 11  2  0
 11 12  1  0
 12 13  2  0
 13 14  1  0
  1 15  1  0
 15 16  2  0
 16 17  1  0
 17 18  1  0
 18 19  1  0
 19 20  1  0
 17 21  2  0
 21 22  1  0
 22 23  2  0
 23 24  1  0
 24 25  1  0
 25 26  1  0
 26 27  1  0
 13  4  1  0
 23 15  1  0
 12  7  1  0
 27 22  1  0
M  END
>  <AAScore>  (1) 
413.7053924924692

>  <RootName>  (1) 
./4ZLY/04_DeltaGEst/trajectory_05/rank_00/lead_0369

$$$$
