confid_0
     RDKit          3D

 29 32  0  0  0  0  0  0  0  0999 V2000
   24.2000   26.2400   35.6900 N   0  0  0  0  0  0  0  0  0  0  0  0
   24.8500   26.2800   34.4800 C   0  0  0  0  0  0  0  0  0  0  0  0
   24.3100   25.7400   33.5400 O   0  0  0  0  0  0  0  0  0  0  0  0
   26.1800   26.9700   34.4700 C   0  0  0  0  0  0  0  0  0  0  0  0
   26.6500   27.6000   35.5500 N   0  0  0  0  0  0  0  0  0  0  0  0
   27.7900   28.2700   35.6200 N   0  0  0  0  0  0  0  0  0  0  0  0
   28.5400   28.3000   34.5100 C   0  0  0  0  0  0  0  0  0  0  0  0
   29.7700   28.9400   34.5600 C   0  0  0  0  0  0  0  0  0  0  0  0
   30.7000   28.8900   33.5000 C   0  0  0  0  0  0  0  0  0  0  0  0
   30.3700   28.1400   32.3700 C   0  0  0  0  0  0  0  0  0  0  0  0
   29.1200   27.5200   32.2800 C   0  0  0  0  0  0  0  0  0  0  0  0
   28.2100   27.6100   33.3300 C   0  0  0  0  0  0  0  0  0  0  0  0
   26.9700   26.9700   33.3100 C   0  0  0  0  0  0  0  0  0  0  0  0
   26.5300   26.2400   32.2200 N   0  0  0  0  0  0  0  0  0  0  0  0
   22.7922   25.9850   35.8425 C   0  0  0  0  0  0  0  0  0  0  0  0
   21.9246   25.8537   34.8259 N   0  0  0  0  0  0  0  0  0  0  0  0
   20.7386   25.6278   35.4322 C   0  0  0  0  0  0  0  0  0  0  0  0
   19.5261   25.2521   34.6315 C   0  0  0  0  0  0  0  0  0  0  0  0
   18.3088   26.1472   34.9176 C   0  0  0  0  0  0  0  0  0  0  0  0
   18.1543   26.4911   36.3468 N   0  0  0  0  0  0  0  0  0  0  0  0
   18.3353   25.3184   37.2272 C   0  0  0  0  0  0  0  0  0  0  0  0
   19.7657   25.3064   37.7816 C   0  0  0  0  0  0  0  0  0  0  0  0
   20.8193   25.6227   36.7957 N   0  0  0  0  0  0  0  0  0  0  0  0
   22.1391   25.8368   37.0407 C   0  0  0  0  0  0  0  0  0  0  0  0
   22.8127   25.8351   38.2764 O   0  0  0  0  0  0  0  0  0  0  0  0
   22.2936   26.1894   39.5571 C   0  0  0  0  0  0  0  0  0  0  0  0
   23.3763   25.9293   40.6036 C   0  0  0  0  0  0  0  0  0  0  0  0
   21.8929   27.6698   39.5788 C   0  0  0  0  0  0  0  0  0  0  0  0
   16.8489   27.1318   36.5715 C   0  0  0  0  0  0  0  0  0  0  0  0
  1  2  1  0
  2  3  2  0
  2  4  1  0
  4  5  2  0
  5  6  1  0
  6  7  2  0
  7  8  1  0
  8  9  2  0
  9 10  1  0
 10 11  2  0
 11 12  1  0
 12 13  2  0
 13 14  1  0
  1 15  1  0
 15 16  1  0
 16 17  2  0
 17 18  1  0
 18 19  1  0
 19 20  1  0
 20 21  1  0
 21 22  1  0
 22 23  1  0
 23 24  1  0
 24 25  1  0
 25 26  1  0
 26 27  1  0
 26 28  1  0
 20 29  1  0
 13  4  1  0
 24 15  2  0
 12  7  1  0
 23 17  1  0
M  END
>  <AAScore>  (1) 
1610.9279876272956

>  <RootName>  (1) 
./4ZLY/04_DeltaGEst/trajectory_04/rank_00/lead_0309

$$$$
