confid_13
     RDKit          3D

 28 30  0  0  0  0  0  0  0  0999 V2000
   24.4800   26.1000   36.1300 N   0  0  0  0  0  0  0  0  0  0  0  0
   25.2500   26.2500   34.9900 C   0  0  0  0  0  0  0  0  0  0  0  0
   24.7400   25.7600   33.9900 O   0  0  0  0  0  0  0  0  0  0  0  0
   26.5900   26.8900   34.9600 C   0  0  0  0  0  0  0  0  0  0  0  0
   27.0600   27.2400   36.1600 N   0  0  0  0  0  0  0  0  0  0  0  0
   28.3000   27.7100   36.2400 N   0  0  0  0  0  0  0  0  0  0  0  0
   29.0500   27.9600   35.1500 C   0  0  0  0  0  0  0  0  0  0  0  0
   30.3400   28.4900   35.2600 C   0  0  0  0  0  0  0  0  0  0  0  0
   31.1100   28.8200   34.1400 C   0  0  0  0  0  0  0  0  0  0  0  0
   30.5200   28.6700   32.8800 C   0  0  0  0  0  0  0  0  0  0  0  0
   29.2900   28.0200   32.7700 C   0  0  0  0  0  0  0  0  0  0  0  0
   28.5200   27.7100   33.8900 C   0  0  0  0  0  0  0  0  0  0  0  0
   27.2700   27.0800   33.7600 C   0  0  0  0  0  0  0  0  0  0  0  0
   26.7500   26.8800   32.4900 N   0  0  0  0  0  0  0  0  0  0  0  0
   23.0399   26.0410   36.1499 C   0  0  0  0  0  0  0  0  0  0  0  0
   22.2630   26.7129   35.1870 C   0  0  0  0  0  0  0  0  0  0  0  0
   20.8641   26.6557   35.2362 C   0  0  0  0  0  0  0  0  0  0  0  0
   19.9196   27.4702   33.9930 S   0  0  0  0  0  6  0  0  0  0  0  0
   20.3357   28.9141   33.9399 O   0  0  0  0  0  0  0  0  0  0  0  0
   18.4561   27.3994   34.3348 O   0  0  0  0  0  0  0  0  0  0  0  0
   20.2273   26.6916   32.4587 N   0  0  0  0  0  0  0  0  0  0  0  0
   19.6052   25.3619   32.4140 C   0  0  0  0  0  0  0  0  0  0  0  0
   19.8785   27.5410   31.3002 C   0  0  0  0  0  0  0  0  0  0  0  0
   18.3846   27.8703   31.1746 C   0  0  0  0  0  0  0  0  0  0  0  0
   20.2344   25.9320   36.2579 C   0  0  0  0  0  0  0  0  0  0  0  0
   20.9987   25.2825   37.2302 C   0  0  0  0  0  0  0  0  0  0  0  0
   22.3941   25.3422   37.1809 C   0  0  0  0  0  0  0  0  0  0  0  0
   20.3856   24.5900   38.2217 F   0  0  0  0  0  0  0  0  0  0  0  0
  1  2  1  0
  2  3  2  0
  2  4  1  0
  4  5  2  0
  5  6  1  0
  6  7  2  0
  7  8  1  0
  8  9  2  0
  9 10  1  0
 10 11  2  0
 11 12  1  0
 12 13  2  0
 13 14  1  0
  1 15  1  0
 15 16  2  0
 16 17  1  0
 17 18  1  0
 18 19  2  0
 18 20  2  0
 18 21  1  0
 21 22  1  0
 21 23  1  0
 23 24  1  0
 17 25  2  0
 25 26  1  0
 26 27  2  0
 26 28  1  0
 13  4  1  0
 27 15  1  0
 12  7  1  0
M  END
>  <AAScore>  (1) 
767.2858223905214

>  <RootName>  (1) 
./4ZLY/04_DeltaGEst/trajectory_00/rank_00/lead_0215

$$$$
