confid_1
     RDKit          3D

 27 30  0  0  0  0  0  0  0  0999 V2000
   25.3300   26.2600   34.7600 N   0  0  0  0  0  0  0  0  0  0  0  0
   26.1200   25.9200   33.6900 C   0  0  0  0  0  0  0  0  0  0  0  0
   25.6300   25.1100   32.9400 O   0  0  0  0  0  0  0  0  0  0  0  0
   27.5200   26.3800   33.4600 C   0  0  0  0  0  0  0  0  0  0  0  0
   28.1600   26.6300   34.6100 N   0  0  0  0  0  0  0  0  0  0  0  0
   29.4800   26.8500   34.5700 N   0  0  0  0  0  0  0  0  0  0  0  0
   30.1900   26.7800   33.4400 C   0  0  0  0  0  0  0  0  0  0  0  0
   31.5600   27.0500   33.5000 C   0  0  0  0  0  0  0  0  0  0  0  0
   32.2700   27.2400   32.3100 C   0  0  0  0  0  0  0  0  0  0  0  0
   31.6100   27.2500   31.0800 C   0  0  0  0  0  0  0  0  0  0  0  0
   30.2700   26.8700   31.0600 C   0  0  0  0  0  0  0  0  0  0  0  0
   29.5100   26.6900   32.2300 C   0  0  0  0  0  0  0  0  0  0  0  0
   28.1400   26.4100   32.2000 C   0  0  0  0  0  0  0  0  0  0  0  0
   27.4300   26.1300   31.0500 N   0  0  0  0  0  0  0  0  0  0  0  0
   24.1909   25.5077   35.2311 C   0  0  0  0  0  0  0  0  0  0  0  0
   24.0639   24.1913   34.9083 N   0  0  0  0  0  0  0  0  0  0  0  0
   23.0257   23.4316   35.3395 C   0  0  0  0  0  0  0  0  0  0  0  0
   22.0345   23.9857   36.1622 C   0  0  0  0  0  0  0  0  0  0  0  0
   20.8149   23.1752   36.5234 C   0  0  0  0  0  0  0  0  0  0  0  0
   20.6932   23.0301   37.9908 N   0  0  0  0  0  0  0  0  0  0  0  0
   19.9640   21.7916   38.3154 C   0  0  0  0  0  0  0  0  0  0  0  0
   19.9902   24.1865   38.5864 C   0  0  0  0  0  0  0  0  0  0  0  0
   20.9107   25.4001   38.6820 C   0  0  0  0  0  0  0  0  0  0  0  0
   21.2231   25.9314   37.3981 O   0  0  0  0  0  0  0  0  0  0  0  0
   22.1549   25.3346   36.5439 C   0  0  0  0  0  0  0  0  0  0  0  0
   23.2237   26.1055   36.0622 C   0  0  0  0  0  0  0  0  0  0  0  0
   23.3282   27.8064   36.5144 Cl  0  0  0  0  0  0  0  0  0  0  0  0
  1  2  1  0
  2  3  2  0
  2  4  1  0
  4  5  2  0
  5  6  1  0
  6  7  2  0
  7  8  1  0
  8  9  2  0
  9 10  1  0
 10 11  2  0
 11 12  1  0
 12 13  2  0
 13 14  1  0
  1 15  1  0
 15 16  2  0
 16 17  1  0
 17 18  2  0
 18 19  1  0
 19 20  1  0
 20 21  1  0
 20 22  1  0
 22 23  1  0
 23 24  1  0
 24 25  1  0
 25 26  2  0
 26 27  1  0
 13  4  1  0
 26 15  1  0
 12  7  1  0
 25 18  1  0
M  END
>  <AAScore>  (1) 
4747.565762385155

>  <RootName>  (1) 
./4ZLY/04_DeltaGEst/trajectory_03/rank_00/lead_0386

$$$$
