confid_1
     RDKit          3D

 27 30  0  0  0  0  0  0  0  0999 V2000
   24.6900   26.1200   35.5300 N   0  0  0  0  0  0  0  0  0  0  0  0
   25.6600   25.6700   34.6600 C   0  0  0  0  0  0  0  0  0  0  0  0
   25.2400   25.0100   33.7200 O   0  0  0  0  0  0  0  0  0  0  0  0
   27.0300   26.2200   34.8800 C   0  0  0  0  0  0  0  0  0  0  0  0
   27.3500   26.7300   36.0700 N   0  0  0  0  0  0  0  0  0  0  0  0
   28.5700   27.1800   36.3300 N   0  0  0  0  0  0  0  0  0  0  0  0
   29.5300   27.1100   35.3900 C   0  0  0  0  0  0  0  0  0  0  0  0
   30.8300   27.5700   35.6500 C   0  0  0  0  0  0  0  0  0  0  0  0
   31.8500   27.5400   34.6900 C   0  0  0  0  0  0  0  0  0  0  0  0
   31.5100   27.1200   33.4000 C   0  0  0  0  0  0  0  0  0  0  0  0
   30.2200   26.6300   33.1100 C   0  0  0  0  0  0  0  0  0  0  0  0
   29.2400   26.6600   34.1000 C   0  0  0  0  0  0  0  0  0  0  0  0
   27.9300   26.2600   33.8100 C   0  0  0  0  0  0  0  0  0  0  0  0
   27.5200   25.7100   32.6100 N   0  0  0  0  0  0  0  0  0  0  0  0
   23.2864   26.1793   35.2039 C   0  0  0  0  0  0  0  0  0  0  0  0
   22.9144   26.4635   33.9267 N   0  0  0  0  0  0  0  0  0  0  0  0
   21.6181   26.5874   33.5539 C   0  0  0  0  0  0  0  0  0  0  0  0
   20.5984   26.4655   34.5027 C   0  0  0  0  0  0  0  0  0  0  0  0
   19.1783   26.5984   34.1125 C   0  0  0  0  0  0  0  0  0  0  0  0
   18.8500   26.6562   32.8955 O   0  0  0  0  0  0  0  0  0  0  0  0
   18.1727   26.6411   35.1357 N   0  0  0  0  0  0  0  0  0  0  0  0
   18.5940   26.9129   36.5131 C   0  0  0  0  0  0  0  0  0  0  0  0
   19.8202   26.0672   36.8759 C   0  0  0  0  0  0  0  0  0  0  0  0
   20.9337   26.2070   35.8495 C   0  0  0  0  0  0  0  0  0  0  0  0
   22.2939   25.9934   36.1969 C   0  0  0  0  0  0  0  0  0  0  0  0
   22.6850   25.5795   37.5983 C   0  0  0  0  0  0  0  0  0  0  0  0
   16.7611   26.4485   34.7967 C   0  0  0  0  0  0  0  0  0  0  0  0
  1  2  1  0
  2  3  2  0
  2  4  1  0
  4  5  2  0
  5  6  1  0
  6  7  2  0
  7  8  1  0
  8  9  2  0
  9 10  1  0
 10 11  2  0
 11 12  1  0
 12 13  2  0
 13 14  1  0
  1 15  1  0
 15 16  2  0
 16 17  1  0
 17 18  2  0
 18 19  1  0
 19 20  2  0
 19 21  1  0
 21 22  1  0
 22 23  1  0
 23 24  1  0
 24 25  2  0
 25 26  1  0
 21 27  1  0
 13  4  1  0
 25 15  1  0
 12  7  1  0
 24 18  1  0
M  END
>  <AAScore>  (1) 
1839.8415618359695

>  <RootName>  (1) 
./4ZLY/04_DeltaGEst/trajectory_02/rank_00/lead_0213

$$$$
