confid_9
     RDKit          3D

 28 31  0  0  0  0  0  0  0  0999 V2000
   24.6900   26.1200   35.5300 N   0  0  0  0  0  0  0  0  0  0  0  0
   25.6600   25.6700   34.6600 C   0  0  0  0  0  0  0  0  0  0  0  0
   25.2400   25.0100   33.7200 O   0  0  0  0  0  0  0  0  0  0  0  0
   27.0300   26.2200   34.8800 C   0  0  0  0  0  0  0  0  0  0  0  0
   27.3500   26.7300   36.0700 N   0  0  0  0  0  0  0  0  0  0  0  0
   28.5700   27.1800   36.3300 N   0  0  0  0  0  0  0  0  0  0  0  0
   29.5300   27.1100   35.3900 C   0  0  0  0  0  0  0  0  0  0  0  0
   30.8300   27.5700   35.6500 C   0  0  0  0  0  0  0  0  0  0  0  0
   31.8500   27.5400   34.6900 C   0  0  0  0  0  0  0  0  0  0  0  0
   31.5100   27.1200   33.4000 C   0  0  0  0  0  0  0  0  0  0  0  0
   30.2200   26.6300   33.1100 C   0  0  0  0  0  0  0  0  0  0  0  0
   29.2400   26.6600   34.1000 C   0  0  0  0  0  0  0  0  0  0  0  0
   27.9300   26.2600   33.8100 C   0  0  0  0  0  0  0  0  0  0  0  0
   27.5200   25.7100   32.6100 N   0  0  0  0  0  0  0  0  0  0  0  0
   31.1444   28.0716   36.9576 N   0  0  0  0  0  0  0  0  0  0  0  0
   32.0003   27.2735   37.8455 C   0  0  0  0  0  0  0  0  0  0  0  0
   32.2142   27.9733   39.1914 C   0  0  0  0  0  0  0  0  0  0  0  0
   30.9421   28.5202   39.6785 N   0  0  0  0  0  0  0  0  0  0  0  0
   30.0816   29.3160   38.7916 C   0  0  0  0  0  0  0  0  0  0  0  0
   30.6549   29.3914   37.3723 C   0  0  0  0  0  0  0  0  0  0  0  0
   30.5353   28.2992   41.0379 C   0  0  0  0  0  0  0  0  0  0  0  0
   30.4150   29.3874   41.9157 C   0  0  0  0  0  0  0  0  0  0  0  0
   30.0194   29.1853   43.2394 C   0  0  0  0  0  0  0  0  0  0  0  0
   29.7390   27.8965   43.6956 C   0  0  0  0  0  0  0  0  0  0  0  0
   29.8479   26.8059   42.8289 C   0  0  0  0  0  0  0  0  0  0  0  0
   30.2423   26.9978   41.4896 C   0  0  0  0  0  0  0  0  0  0  0  0
   30.3392   25.9307   40.5823 O   0  0  0  0  0  0  0  0  0  0  0  0
   30.0636   24.5713   40.9015 C   0  0  0  0  0  0  0  0  0  0  0  0
  1  2  1  0
  2  3  2  0
  2  4  1  0
  4  5  2  0
  5  6  1  0
  6  7  2  0
  7  8  1  0
  8  9  2  0
  9 10  1  0
 10 11  2  0
 11 12  1  0
 12 13  2  0
 13 14  1  0
  8 15  1  0
 15 16  1  0
 16 17  1  0
 17 18  1  0
 18 19  1  0
 19 20  1  0
 18 21  1  0
 21 22  2  0
 22 23  1  0
 23 24  2  0
 24 25  1  0
 25 26  2  0
 26 27  1  0
 27 28  1  0
 13  4  1  0
 20 15  1  0
 26 21  1  0
 12  7  1  0
M  END
>  <AAScore>  (1) 
49.84387968992277

>  <RootName>  (1) 
./4ZLY/04_DeltaGEst/trajectory_02/rank_01/lead_0288

$$$$
