confid_18
     RDKit          3D

 31 34  0  0  0  0  0  0  0  0999 V2000
   24.5500   26.3900   36.2500 N   0  0  0  0  0  0  0  0  0  0  0  0
   25.6000   26.1300   35.4000 C   0  0  0  0  0  0  0  0  0  0  0  0
   25.4300   25.4300   34.4200 O   0  0  0  0  0  0  0  0  0  0  0  0
   26.9800   26.6300   35.7100 C   0  0  0  0  0  0  0  0  0  0  0  0
   27.3200   26.8200   36.9800 N   0  0  0  0  0  0  0  0  0  0  0  0
   28.4700   27.4000   37.3100 N   0  0  0  0  0  0  0  0  0  0  0  0
   29.4000   27.6300   36.3700 C   0  0  0  0  0  0  0  0  0  0  0  0
   30.6600   28.0500   36.8000 C   0  0  0  0  0  0  0  0  0  0  0  0
   31.5700   28.3600   35.7800 C   0  0  0  0  0  0  0  0  0  0  0  0
   31.3700   28.1000   34.4300 C   0  0  0  0  0  0  0  0  0  0  0  0
   30.1200   27.5900   34.0500 C   0  0  0  0  0  0  0  0  0  0  0  0
   29.1500   27.3400   35.0300 C   0  0  0  0  0  0  0  0  0  0  0  0
   27.8800   26.8900   34.6600 C   0  0  0  0  0  0  0  0  0  0  0  0
   27.4800   26.6100   33.3700 N   0  0  0  0  0  0  0  0  0  0  0  0
   23.2497   25.7125   36.1550 C   0  0  0  0  0  0  0  0  0  0  0  0
   22.1133   26.6380   36.6648 C   0  0  0  0  0  0  0  0  0  0  0  0
   21.0570   25.8837   37.4871 C   0  0  0  0  0  0  0  0  0  0  0  0
   20.7548   24.5490   36.9312 N   0  0  0  0  0  0  0  0  0  0  0  0
   20.0445   24.6398   35.6375 C   0  0  0  0  0  0  0  0  0  0  0  0
   19.1510   23.4102   35.4262 C   0  0  0  0  0  0  0  0  0  0  0  0
   18.2677   23.5744   34.2137 C   0  0  0  0  0  0  0  0  0  0  0  0
   18.7463   23.9952   33.1699 O   0  0  0  0  0  0  0  0  0  0  0  0
   16.8024   23.2286   34.2742 C   0  0  0  0  0  0  0  0  0  0  0  0
   16.3491   22.6523   32.9913 N   0  0  0  0  0  0  0  0  0  0  0  0
   16.8408   21.2752   32.7549 C   0  0  0  0  0  0  0  0  0  0  0  0
   16.0800   20.2137   33.5697 C   0  0  0  0  0  0  0  0  0  0  0  0
   14.5729   20.3301   33.3461 C   0  0  0  0  0  0  0  0  0  0  0  0
   14.1027   21.7537   33.6430 C   0  0  0  0  0  0  0  0  0  0  0  0
   14.8886   22.7643   32.7924 C   0  0  0  0  0  0  0  0  0  0  0  0
   21.9467   23.6566   36.8786 C   0  0  0  0  0  0  0  0  0  0  0  0
   23.2964   24.4008   36.9490 C   0  0  0  0  0  0  0  0  0  0  0  0
  1  2  1  0
  2  3  2  0
  2  4  1  0
  4  5  2  0
  5  6  1  0
  6  7  2  0
  7  8  1  0
  8  9  2  0
  9 10  1  0
 10 11  2  0
 11 12  1  0
 12 13  2  0
 13 14  1  0
  1 15  1  0
 15 16  1  0
 16 17  1  0
 17 18  1  0
 18 19  1  0
 19 20  1  0
 20 21  1  0
 21 22  2  0
 21 23  1  0
 23 24  1  0
 24 25  1  0
 25 26  1  0
 26 27  1  0
 27 28  1  0
 28 29  1  0
 18 30  1  0
 30 31  1  0
 13  4  1  0
 31 15  1  0
 12  7  1  0
 29 24  1  0
M  END
>  <AAScore>  (1) 
378.9471973860697

>  <RootName>  (1) 
./4ZLY/04_DeltaGEst/trajectory_01/rank_00/lead_0425

$$$$
