confid_6
     RDKit          3D

 27 31  0  0  0  0  0  0  0  0999 V2000
   25.3300   26.2600   34.7600 N   0  0  0  0  0  0  0  0  0  0  0  0
   26.1200   25.9200   33.6900 C   0  0  0  0  0  0  0  0  0  0  0  0
   25.6300   25.1100   32.9400 O   0  0  0  0  0  0  0  0  0  0  0  0
   27.5200   26.3800   33.4600 C   0  0  0  0  0  0  0  0  0  0  0  0
   28.1600   26.6300   34.6100 N   0  0  0  0  0  0  0  0  0  0  0  0
   29.4800   26.8500   34.5700 N   0  0  0  0  0  0  0  0  0  0  0  0
   30.1900   26.7800   33.4400 C   0  0  0  0  0  0  0  0  0  0  0  0
   31.5600   27.0500   33.5000 C   0  0  0  0  0  0  0  0  0  0  0  0
   32.2700   27.2400   32.3100 C   0  0  0  0  0  0  0  0  0  0  0  0
   31.6100   27.2500   31.0800 C   0  0  0  0  0  0  0  0  0  0  0  0
   30.2700   26.8700   31.0600 C   0  0  0  0  0  0  0  0  0  0  0  0
   29.5100   26.6900   32.2300 C   0  0  0  0  0  0  0  0  0  0  0  0
   28.1400   26.4100   32.2000 C   0  0  0  0  0  0  0  0  0  0  0  0
   27.4300   26.1300   31.0500 N   0  0  0  0  0  0  0  0  0  0  0  0
   27.5321   24.9104   30.3029 C   0  0  0  0  0  0  0  0  0  0  0  0
   26.6729   25.2054   29.0688 C   0  0  2  0  0  0  0  0  0  0  0  0
   25.9381   26.3962   29.2985 O   0  0  0  0  0  0  0  0  0  0  0  0
   26.5073   27.0447   30.4164 C   0  0  0  0  0  0  0  0  0  0  0  0
   25.7033   24.0364   28.6988 C   0  0  0  0  0  0  0  0  0  0  0  0
   26.0714   23.6879   27.2942 C   0  0  0  0  0  0  0  0  0  0  0  0
   25.4890   22.7266   26.5309 N   0  0  0  0  0  0  0  0  0  0  0  0
   25.9299   22.5067   25.2573 C   0  0  0  0  0  0  0  0  0  0  0  0
   26.9882   23.2715   24.7288 C   0  0  0  0  0  0  0  0  0  0  0  0
   27.5881   24.2623   25.5199 C   0  0  0  0  0  0  0  0  0  0  0  0
   27.1023   24.4467   26.8123 C   0  0  0  0  0  0  0  0  0  0  0  0
   27.5135   25.3774   27.8313 C   0  0  0  0  0  0  0  0  0  0  0  0
   28.4265   26.2345   27.6914 O   0  0  0  0  0  0  0  0  0  0  0  0
  1  2  1  0
  2  3  2  0
  2  4  1  0
  4  5  2  0
  5  6  1  0
  6  7  2  0
  7  8  1  0
  8  9  2  0
  9 10  1  0
 10 11  2  0
 11 12  1  0
 12 13  2  0
 13 14  1  0
 14 15  1  0
 16 15  1  1
 16 17  1  0
 17 18  1  0
 16 19  1  0
 19 20  1  0
 20 21  2  0
 21 22  1  0
 22 23  2  0
 23 24  1  0
 24 25  2  0
 25 26  1  0
 26 27  2  0
 13  4  1  0
 18 14  1  0
 25 20  1  0
 12  7  1  0
 26 16  1  0
M  END
>  <AAScore>  (1) 
83.31439460567712

>  <RootName>  (1) 
./4ZLY/04_DeltaGEst/trajectory_03/rank_01/lead_0222

$$$$
