confid_3
     RDKit          3D

 27 30  0  0  0  0  0  0  0  0999 V2000
   24.6900   26.1200   35.5300 N   0  0  0  0  0  0  0  0  0  0  0  0
   25.6600   25.6700   34.6600 C   0  0  0  0  0  0  0  0  0  0  0  0
   25.2400   25.0100   33.7200 O   0  0  0  0  0  0  0  0  0  0  0  0
   27.0300   26.2200   34.8800 C   0  0  0  0  0  0  0  0  0  0  0  0
   27.3500   26.7300   36.0700 N   0  0  0  0  0  0  0  0  0  0  0  0
   28.5700   27.1800   36.3300 N   0  0  0  0  0  0  0  0  0  0  0  0
   29.5300   27.1100   35.3900 C   0  0  0  0  0  0  0  0  0  0  0  0
   30.8300   27.5700   35.6500 C   0  0  0  0  0  0  0  0  0  0  0  0
   31.8500   27.5400   34.6900 C   0  0  0  0  0  0  0  0  0  0  0  0
   31.5100   27.1200   33.4000 C   0  0  0  0  0  0  0  0  0  0  0  0
   30.2200   26.6300   33.1100 C   0  0  0  0  0  0  0  0  0  0  0  0
   29.2400   26.6600   34.1000 C   0  0  0  0  0  0  0  0  0  0  0  0
   27.9300   26.2600   33.8100 C   0  0  0  0  0  0  0  0  0  0  0  0
   27.5200   25.7100   32.6100 N   0  0  0  0  0  0  0  0  0  0  0  0
   23.3157   26.3502   35.1741 C   0  0  0  0  0  0  0  0  0  0  0  0
   22.3973   26.5642   36.1531 N   0  0  0  0  0  0  0  0  0  0  0  0
   21.0932   26.7967   35.8560 C   0  0  0  0  0  0  0  0  0  0  0  0
   20.6704   26.8175   34.5231 C   0  0  0  0  0  0  0  0  0  0  0  0
   19.2399   27.1521   34.1797 C   0  0  0  0  0  0  0  0  0  0  0  0
   18.8948   26.7386   32.7997 N   0  0  0  0  0  0  0  0  0  0  0  0
   17.5319   27.1860   32.4369 C   0  0  0  0  0  0  0  0  0  0  0  0
   16.4685   26.3048   33.0909 C   0  0  0  0  0  0  0  0  0  0  0  0
   19.8838   27.2887   31.8494 C   0  0  0  0  0  0  0  0  0  0  0  0
   21.2514   26.6156   32.0638 C   0  0  1  0  0  0  0  0  0  0  0  0
   21.6360   26.6300   33.5204 C   0  0  0  0  0  0  0  0  0  0  0  0
   22.9282   26.3926   33.8702 N   0  0  0  0  0  0  0  0  0  0  0  0
   21.2425   25.1737   31.5414 C   0  0  0  0  0  0  0  0  0  0  0  0
  1  2  1  0
  2  3  2  0
  2  4  1  0
  4  5  2  0
  5  6  1  0
  6  7  2  0
  7  8  1  0
  8  9  2  0
  9 10  1  0
 10 11  2  0
 11 12  1  0
 12 13  2  0
 13 14  1  0
  1 15  1  0
 15 16  2  0
 16 17  1  0
 17 18  2  0
 18 19  1  0
 19 20  1  0
 20 21  1  0
 21 22  1  0
 20 23  1  0
 23 24  1  0
 24 25  1  0
 25 26  2  0
 24 27  1  1
 13  4  1  0
 26 15  1  0
 12  7  1  0
 25 18  1  0
M  END
>  <AAScore>  (1) 
1145.0737685162806

>  <RootName>  (1) 
./4ZLY/04_DeltaGEst/trajectory_02/rank_00/lead_0036

$$$$
