confid_11
     RDKit          3D

 30 33  0  0  0  0  0  0  0  0999 V2000
   24.4800   26.1000   36.1300 N   0  0  0  0  0  0  0  0  0  0  0  0
   25.2500   26.2500   34.9900 C   0  0  0  0  0  0  0  0  0  0  0  0
   24.7400   25.7600   33.9900 O   0  0  0  0  0  0  0  0  0  0  0  0
   26.5900   26.8900   34.9600 C   0  0  0  0  0  0  0  0  0  0  0  0
   27.0600   27.2400   36.1600 N   0  0  0  0  0  0  0  0  0  0  0  0
   28.3000   27.7100   36.2400 N   0  0  0  0  0  0  0  0  0  0  0  0
   29.0500   27.9600   35.1500 C   0  0  0  0  0  0  0  0  0  0  0  0
   30.3400   28.4900   35.2600 C   0  0  0  0  0  0  0  0  0  0  0  0
   31.1100   28.8200   34.1400 C   0  0  0  0  0  0  0  0  0  0  0  0
   30.5200   28.6700   32.8800 C   0  0  0  0  0  0  0  0  0  0  0  0
   29.2900   28.0200   32.7700 C   0  0  0  0  0  0  0  0  0  0  0  0
   28.5200   27.7100   33.8900 C   0  0  0  0  0  0  0  0  0  0  0  0
   27.2700   27.0800   33.7600 C   0  0  0  0  0  0  0  0  0  0  0  0
   26.7500   26.8800   32.4900 N   0  0  0  0  0  0  0  0  0  0  0  0
   23.4614   25.0976   36.3146 C   0  0  0  0  0  0  0  0  0  0  0  0
   23.3872   23.8701   35.6731 C   0  0  0  0  0  0  0  0  0  0  0  0
   22.3273   23.2098   36.2627 C   0  0  0  0  0  0  0  0  0  0  0  0
   21.9139   21.7974   36.0046 C   0  0  0  0  0  0  0  0  0  0  0  0
   20.5282   21.5792   36.4439 N   0  0  0  0  0  0  0  0  0  0  0  0
   19.9789   22.3292   37.5516 C   0  0  0  0  0  0  0  0  0  0  0  0
   18.8640   22.0073   38.0466 O   0  0  0  0  0  0  0  0  0  0  0  0
   20.7221   23.4990   38.1398 C   0  0  0  0  0  0  0  0  0  0  0  0
   21.7694   23.9630   37.2287 N   0  0  0  0  0  0  0  0  0  0  0  0
   22.4590   25.1250   37.2758 C   0  0  0  0  0  0  0  0  0  0  0  0
   22.2540   26.2005   38.3033 C   0  0  0  0  0  0  0  0  0  0  0  0
   19.7254   20.5412   35.7824 C   0  0  0  0  0  0  0  0  0  0  0  0
   18.7387   21.1853   34.8000 C   0  0  0  0  0  0  0  0  0  0  0  0
   17.8048   20.1768   34.2502 N   0  0  0  0  0  0  0  0  0  0  0  0
   16.5684   20.8320   33.7907 C   0  0  0  0  0  0  0  0  0  0  0  0
   18.4155   19.4467   33.1242 C   0  0  0  0  0  0  0  0  0  0  0  0
  1  2  1  0
  2  3  2  0
  2  4  1  0
  4  5  2  0
  5  6  1  0
  6  7  2  0
  7  8  1  0
  8  9  2  0
  9 10  1  0
 10 11  2  0
 11 12  1  0
 12 13  2  0
 13 14  1  0
  1 15  1  0
 15 16  1  0
 16 17  2  0
 17 18  1  0
 18 19  1  0
 19 20  1  0
 20 21  2  0
 20 22  1  0
 22 23  1  0
 23 24  1  0
 24 25  1  0
 19 26  1  0
 26 27  1  0
 27 28  1  0
 28 29  1  0
 28 30  1  0
 13  4  1  0
 24 15  2  0
 12  7  1  0
 23 17  1  0
M  END
>  <AAScore>  (1) 
17101.02703188959

>  <RootName>  (1) 
./4ZLY/04_DeltaGEst/trajectory_00/rank_00/lead_0077

$$$$
