confid_13
     RDKit          3D

 27 30  0  0  0  0  0  0  0  0999 V2000
   24.2000   26.2400   35.6900 N   0  0  0  0  0  0  0  0  0  0  0  0
   24.8500   26.2800   34.4800 C   0  0  0  0  0  0  0  0  0  0  0  0
   24.3100   25.7400   33.5400 O   0  0  0  0  0  0  0  0  0  0  0  0
   26.1800   26.9700   34.4700 C   0  0  0  0  0  0  0  0  0  0  0  0
   26.6500   27.6000   35.5500 N   0  0  0  0  0  0  0  0  0  0  0  0
   27.7900   28.2700   35.6200 N   0  0  0  0  0  0  0  0  0  0  0  0
   28.5400   28.3000   34.5100 C   0  0  0  0  0  0  0  0  0  0  0  0
   29.7700   28.9400   34.5600 C   0  0  0  0  0  0  0  0  0  0  0  0
   30.7000   28.8900   33.5000 C   0  0  0  0  0  0  0  0  0  0  0  0
   30.3700   28.1400   32.3700 C   0  0  0  0  0  0  0  0  0  0  0  0
   29.1200   27.5200   32.2800 C   0  0  0  0  0  0  0  0  0  0  0  0
   28.2100   27.6100   33.3300 C   0  0  0  0  0  0  0  0  0  0  0  0
   26.9700   26.9700   33.3100 C   0  0  0  0  0  0  0  0  0  0  0  0
   26.5300   26.2400   32.2200 N   0  0  0  0  0  0  0  0  0  0  0  0
   22.8245   25.7616   35.9177 C   0  0  0  0  0  0  0  0  0  0  0  0
   22.6889   24.2545   35.6535 C   0  0  0  0  0  0  0  0  0  0  0  0
   21.2422   23.7955   35.9026 C   0  0  0  0  0  0  0  0  0  0  0  0
   20.2554   24.5815   35.1278 N   0  0  0  0  0  0  0  0  0  0  0  0
   20.3780   26.0348   35.3789 C   0  0  0  0  0  0  0  0  0  0  0  0
   21.7959   26.5587   35.1018 C   0  0  0  0  0  0  0  0  0  0  0  0
   20.2157   24.2298   33.6867 C   0  0  0  0  0  0  0  0  0  0  0  0
   18.8896   23.5349   33.3193 C   0  0  0  0  0  0  0  0  0  0  0  0
   17.6676   24.4573   33.5119 C   0  0  0  0  0  0  0  0  0  0  0  0
   16.3544   23.6507   33.5328 C   0  0  0  0  0  0  0  0  0  0  0  0
   16.5146   22.3975   32.8967 O   0  0  0  0  0  0  0  0  0  0  0  0
   17.3440   21.5542   33.6816 C   0  0  0  0  0  0  0  0  0  0  0  0
   18.6818   22.2183   34.0852 C   0  0  0  0  0  0  0  0  0  0  0  0
  1  2  1  0
  2  3  2  0
  2  4  1  0
  4  5  2  0
  5  6  1  0
  6  7  2  0
  7  8  1  0
  8  9  2  0
  9 10  1  0
 10 11  2  0
 11 12  1  0
 12 13  2  0
 13 14  1  0
  1 15  1  0
 15 16  1  0
 16 17  1  0
 17 18  1  0
 18 19  1  0
 19 20  1  0
 18 21  1  0
 21 22  1  0
 22 23  1  0
 23 24  1  0
 24 25  1  0
 25 26  1  0
 26 27  1  0
 13  4  1  0
 20 15  1  0
 27 22  1  0
 12  7  1  0
M  END
>  <AAScore>  (1) 
723.1128791832863

>  <RootName>  (1) 
./4ZLY/04_DeltaGEst/trajectory_04/rank_00/lead_0211

$$$$
