confid_0
     RDKit          3D

 30 33  0  0  0  0  0  0  0  0999 V2000
   24.5500   26.3900   36.2500 N   0  0  0  0  0  0  0  0  0  0  0  0
   25.6000   26.1300   35.4000 C   0  0  0  0  0  0  0  0  0  0  0  0
   25.4300   25.4300   34.4200 O   0  0  0  0  0  0  0  0  0  0  0  0
   26.9800   26.6300   35.7100 C   0  0  0  0  0  0  0  0  0  0  0  0
   27.3200   26.8200   36.9800 N   0  0  0  0  0  0  0  0  0  0  0  0
   28.4700   27.4000   37.3100 N   0  0  0  0  0  0  0  0  0  0  0  0
   29.4000   27.6300   36.3700 C   0  0  0  0  0  0  0  0  0  0  0  0
   30.6600   28.0500   36.8000 C   0  0  0  0  0  0  0  0  0  0  0  0
   31.5700   28.3600   35.7800 C   0  0  0  0  0  0  0  0  0  0  0  0
   31.3700   28.1000   34.4300 C   0  0  0  0  0  0  0  0  0  0  0  0
   30.1200   27.5900   34.0500 C   0  0  0  0  0  0  0  0  0  0  0  0
   29.1500   27.3400   35.0300 C   0  0  0  0  0  0  0  0  0  0  0  0
   27.8800   26.8900   34.6600 C   0  0  0  0  0  0  0  0  0  0  0  0
   27.4800   26.6100   33.3700 N   0  0  0  0  0  0  0  0  0  0  0  0
   23.2336   25.7988   36.1739 C   0  0  0  0  0  0  0  0  0  0  0  0
   23.0480   24.8026   35.3441 N   0  0  0  0  0  0  0  0  0  0  0  0
   21.9259   24.0099   34.9228 C   0  0  0  0  0  0  0  0  0  0  0  0
   20.7095   24.4935   34.6489 C   0  0  0  0  0  0  0  0  0  0  0  0
   19.6652   23.6910   33.9585 C   0  0  0  0  0  0  0  0  0  0  0  0
   18.5349   24.6071   33.7524 N   0  0  0  0  0  0  0  0  0  0  0  0
   17.7688   24.2853   32.5356 C   0  0  0  0  0  0  0  0  0  0  0  0
   19.0771   25.9873   33.8494 C   0  0  0  0  0  0  0  0  0  0  0  0
   19.6633   26.4924   32.4991 C   0  0  0  0  0  0  0  0  0  0  0  0
   17.9619   26.9638   34.2856 C   0  0  0  0  0  0  0  0  0  0  0  0
   20.2413   25.8789   34.8836 C   0  0  1  0  0  0  0  0  0  0  0  0
   19.7878   25.9982   36.3591 C   0  0  0  0  0  0  0  0  0  0  0  0
   20.8725   25.6663   37.4121 C   0  0  1  0  0  0  0  0  0  0  0  0
   21.0871   24.2838   37.5389 O   0  0  0  0  0  0  0  0  0  0  0  0
   22.1964   26.3964   37.1209 C   0  0  0  0  0  0  0  0  0  0  0  0
   20.4038   26.1389   38.6319 F   0  0  0  0  0  0  0  0  0  0  0  0
  1  2  1  0
  2  3  2  0
  2  4  1  0
  4  5  2  0
  5  6  1  0
  6  7  2  0
  7  8  1  0
  8  9  2  0
  9 10  1  0
 10 11  2  0
 11 12  1  0
 12 13  2  0
 13 14  1  0
  1 15  1  0
 15 16  2  0
 16 17  1  0
 17 18  2  0
 18 19  1  0
 19 20  1  0
 20 21  1  0
 20 22  1  0
 22 23  1  0
 22 24  1  0
 22 25  1  0
 25 26  1  1
 26 27  1  0
 27 28  1  1
 27 29  1  0
 27 30  1  0
 13  4  1  0
 29 15  1  0
 12  7  1  0
 25 18  1  0
M  END
>  <AAScore>  (1) 
722.464373261036

>  <RootName>  (1) 
./4ZLY/04_DeltaGEst/trajectory_01/rank_00/lead_0373

$$$$
