confid_11
     RDKit          3D

 26 29  0  0  0  0  0  0  0  0999 V2000
   25.3300   26.2600   34.7600 N   0  0  0  0  0  0  0  0  0  0  0  0
   26.1200   25.9200   33.6900 C   0  0  0  0  0  0  0  0  0  0  0  0
   25.6300   25.1100   32.9400 O   0  0  0  0  0  0  0  0  0  0  0  0
   27.5200   26.3800   33.4600 C   0  0  0  0  0  0  0  0  0  0  0  0
   28.1600   26.6300   34.6100 N   0  0  0  0  0  0  0  0  0  0  0  0
   29.4800   26.8500   34.5700 N   0  0  0  0  0  0  0  0  0  0  0  0
   30.1900   26.7800   33.4400 C   0  0  0  0  0  0  0  0  0  0  0  0
   31.5600   27.0500   33.5000 C   0  0  0  0  0  0  0  0  0  0  0  0
   32.2700   27.2400   32.3100 C   0  0  0  0  0  0  0  0  0  0  0  0
   31.6100   27.2500   31.0800 C   0  0  0  0  0  0  0  0  0  0  0  0
   30.2700   26.8700   31.0600 C   0  0  0  0  0  0  0  0  0  0  0  0
   29.5100   26.6900   32.2300 C   0  0  0  0  0  0  0  0  0  0  0  0
   28.1400   26.4100   32.2000 C   0  0  0  0  0  0  0  0  0  0  0  0
   27.4300   26.1300   31.0500 N   0  0  0  0  0  0  0  0  0  0  0  0
   23.8957   26.1610   34.8082 C   0  0  0  0  0  0  0  0  0  0  0  0
   23.1966   26.3560   35.9465 N   0  0  0  0  0  0  0  0  0  0  0  0
   21.8501   26.2652   35.7594 C   0  0  0  0  0  0  0  0  0  0  0  0
   20.9182   26.6222   36.8929 C   0  0  0  0  0  0  0  0  0  0  0  0
   19.7246   25.6795   37.0584 C   0  0  0  0  0  0  0  0  0  0  0  0
   18.6810   26.0946   36.1969 O   0  0  0  0  0  0  0  0  0  0  0  0
   18.2474   25.0456   35.3559 C   0  0  0  0  0  0  0  0  0  0  0  0
   19.3046   24.6505   34.3139 C   0  0  0  0  0  0  0  0  0  0  0  0
   20.1311   25.8229   33.8739 C   0  0  0  0  0  0  0  0  0  0  0  0
   19.6949   26.6000   32.9838 O   0  0  0  0  0  0  0  0  0  0  0  0
   21.4763   26.0312   34.4244 C   0  0  0  0  0  0  0  0  0  0  0  0
   22.8718   25.9214   33.4926 S   0  0  0  0  0  0  0  0  0  0  0  0
  1  2  1  0
  2  3  2  0
  2  4  1  0
  4  5  2  0
  5  6  1  0
  6  7  2  0
  7  8  1  0
  8  9  2  0
  9 10  1  0
 10 11  2  0
 11 12  1  0
 12 13  2  0
 13 14  1  0
  1 15  1  0
 15 16  2  0
 16 17  1  0
 17 18  1  0
 18 19  1  0
 19 20  1  0
 20 21  1  0
 21 22  1  0
 22 23  1  0
 23 24  2  0
 23 25  1  0
 25 26  1  0
 13  4  1  0
 26 15  1  0
 12  7  1  0
 25 17  2  0
M  END
>  <AAScore>  (1) 
2215.9668000071133

>  <RootName>  (1) 
./4ZLY/04_DeltaGEst/trajectory_03/rank_00/lead_0445

$$$$
