confid_15
     RDKit          3D

 26 28  0  0  0  0  0  0  0  0999 V2000
   25.3300   26.2600   34.7600 N   0  0  0  0  0  0  0  0  0  0  0  0
   26.1200   25.9200   33.6900 C   0  0  0  0  0  0  0  0  0  0  0  0
   25.6300   25.1100   32.9400 O   0  0  0  0  0  0  0  0  0  0  0  0
   27.5200   26.3800   33.4600 C   0  0  0  0  0  0  0  0  0  0  0  0
   28.1600   26.6300   34.6100 N   0  0  0  0  0  0  0  0  0  0  0  0
   29.4800   26.8500   34.5700 N   0  0  0  0  0  0  0  0  0  0  0  0
   30.1900   26.7800   33.4400 C   0  0  0  0  0  0  0  0  0  0  0  0
   31.5600   27.0500   33.5000 C   0  0  0  0  0  0  0  0  0  0  0  0
   32.2700   27.2400   32.3100 C   0  0  0  0  0  0  0  0  0  0  0  0
   31.6100   27.2500   31.0800 C   0  0  0  0  0  0  0  0  0  0  0  0
   30.2700   26.8700   31.0600 C   0  0  0  0  0  0  0  0  0  0  0  0
   29.5100   26.6900   32.2300 C   0  0  0  0  0  0  0  0  0  0  0  0
   28.1400   26.4100   32.2000 C   0  0  0  0  0  0  0  0  0  0  0  0
   27.4300   26.1300   31.0500 N   0  0  0  0  0  0  0  0  0  0  0  0
   23.9104   26.0425   34.8700 C   0  0  0  0  0  0  0  0  0  0  0  0
   23.2847   26.3158   36.0465 N   0  0  0  0  0  0  0  0  0  0  0  0
   21.9417   26.1463   36.1919 C   0  0  0  0  0  0  0  0  0  0  0  0
   21.3060   26.4238   37.4076 O   0  0  0  0  0  0  0  0  0  0  0  0
   21.9703   26.9761   38.5440 C   0  0  0  0  0  0  0  0  0  0  0  0
   22.0815   28.4953   38.4268 C   0  0  0  0  0  0  0  0  0  0  0  0
   22.8878   28.8400   37.3579 F   0  0  0  0  0  0  0  0  0  0  0  0
   22.6332   29.0071   39.5868 F   0  0  0  0  0  0  0  0  0  0  0  0
   20.8254   29.0448   38.2447 F   0  0  0  0  0  0  0  0  0  0  0  0
   21.1869   25.6825   35.1147 C   0  0  0  0  0  0  0  0  0  0  0  0
   21.8373   25.4127   33.9121 C   0  0  0  0  0  0  0  0  0  0  0  0
   23.1784   25.5992   33.8103 N   0  0  0  0  0  0  0  0  0  0  0  0
  1  2  1  0
  2  3  2  0
  2  4  1  0
  4  5  2  0
  5  6  1  0
  6  7  2  0
  7  8  1  0
  8  9  2  0
  9 10  1  0
 10 11  2  0
 11 12  1  0
 12 13  2  0
 13 14  1  0
  1 15  1  0
 15 16  2  0
 16 17  1  0
 17 18  1  0
 18 19  1  0
 19 20  1  0
 20 21  1  0
 20 22  1  0
 20 23  1  0
 17 24  2  0
 24 25  1  0
 25 26  2  0
 13  4  1  0
 26 15  1  0
 12  7  1  0
M  END
>  <AAScore>  (1) 
6834.562124418779

>  <RootName>  (1) 
./4ZLY/04_DeltaGEst/trajectory_03/rank_00/lead_0492

$$$$
