confid_16
     RDKit          3D

 30 33  0  0  0  0  0  0  0  0999 V2000
   24.6900   26.1200   35.5300 N   0  0  0  0  0  0  0  0  0  0  0  0
   25.6600   25.6700   34.6600 C   0  0  0  0  0  0  0  0  0  0  0  0
   25.2400   25.0100   33.7200 O   0  0  0  0  0  0  0  0  0  0  0  0
   27.0300   26.2200   34.8800 C   0  0  0  0  0  0  0  0  0  0  0  0
   27.3500   26.7300   36.0700 N   0  0  0  0  0  0  0  0  0  0  0  0
   28.5700   27.1800   36.3300 N   0  0  0  0  0  0  0  0  0  0  0  0
   29.5300   27.1100   35.3900 C   0  0  0  0  0  0  0  0  0  0  0  0
   30.8300   27.5700   35.6500 C   0  0  0  0  0  0  0  0  0  0  0  0
   31.8500   27.5400   34.6900 C   0  0  0  0  0  0  0  0  0  0  0  0
   31.5100   27.1200   33.4000 C   0  0  0  0  0  0  0  0  0  0  0  0
   30.2200   26.6300   33.1100 C   0  0  0  0  0  0  0  0  0  0  0  0
   29.2400   26.6600   34.1000 C   0  0  0  0  0  0  0  0  0  0  0  0
   27.9300   26.2600   33.8100 C   0  0  0  0  0  0  0  0  0  0  0  0
   27.5200   25.7100   32.6100 N   0  0  0  0  0  0  0  0  0  0  0  0
   31.1565   28.0464   36.9670 N   0  0  0  0  0  0  0  0  0  0  0  0
   30.5511   29.2787   37.4836 C   0  0  0  0  0  0  0  0  0  0  0  0
   29.9717   29.0232   38.8788 C   0  0  0  0  0  0  0  0  0  0  0  0
   30.8916   28.2311   39.7144 N   0  0  0  0  0  0  0  0  0  0  0  0
   30.4970   27.8403   41.0452 C   0  0  0  0  0  0  0  0  0  0  0  0
   31.3671   27.5209   41.8996 O   0  0  0  0  0  0  0  0  0  0  0  0
   29.0754   27.7865   41.4289 C   0  0  0  0  0  0  0  0  0  0  0  0
   28.3173   26.5968   41.2982 C   0  0  0  0  0  0  0  0  0  0  0  0
   28.9214   25.3122   40.7762 C   0  0  0  0  0  0  0  0  0  0  0  0
   28.7975   25.2222   39.2592 C   0  0  0  0  0  0  0  0  0  0  0  0
   26.9508   26.6188   41.6281 C   0  0  0  0  0  0  0  0  0  0  0  0
   26.3534   27.7878   42.1047 C   0  0  0  0  0  0  0  0  0  0  0  0
   27.1101   28.9505   42.2543 C   0  0  0  0  0  0  0  0  0  0  0  0
   28.4647   28.9519   41.9167 C   0  0  0  0  0  0  0  0  0  0  0  0
   32.2237   27.8779   39.2016 C   0  0  0  0  0  0  0  0  0  0  0  0
   32.1031   27.2843   37.7929 C   0  0  0  0  0  0  0  0  0  0  0  0
  1  2  1  0
  2  3  2  0
  2  4  1  0
  4  5  2  0
  5  6  1  0
  6  7  2  0
  7  8  1  0
  8  9  2  0
  9 10  1  0
 10 11  2  0
 11 12  1  0
 12 13  2  0
 13 14  1  0
  8 15  1  0
 15 16  1  0
 16 17  1  0
 17 18  1  0
 18 19  1  0
 19 20  2  0
 19 21  1  0
 21 22  2  0
 22 23  1  0
 23 24  1  0
 22 25  1  0
 25 26  2  0
 26 27  1  0
 27 28  2  0
 18 29  1  0
 29 30  1  0
 13  4  1  0
 30 15  1  0
 12  7  1  0
 28 21  1  0
M  END
>  <AAScore>  (1) 
391.2741036904615

>  <RootName>  (1) 
./4ZLY/04_DeltaGEst/trajectory_02/rank_01/lead_0349

$$$$
