confid_11
     RDKit          3D

 27 30  0  0  0  0  0  0  0  0999 V2000
   24.5500   26.3900   36.2500 N   0  0  0  0  0  0  0  0  0  0  0  0
   25.6000   26.1300   35.4000 C   0  0  0  0  0  0  0  0  0  0  0  0
   25.4300   25.4300   34.4200 O   0  0  0  0  0  0  0  0  0  0  0  0
   26.9800   26.6300   35.7100 C   0  0  0  0  0  0  0  0  0  0  0  0
   27.3200   26.8200   36.9800 N   0  0  0  0  0  0  0  0  0  0  0  0
   28.4700   27.4000   37.3100 N   0  0  0  0  0  0  0  0  0  0  0  0
   29.4000   27.6300   36.3700 C   0  0  0  0  0  0  0  0  0  0  0  0
   30.6600   28.0500   36.8000 C   0  0  0  0  0  0  0  0  0  0  0  0
   31.5700   28.3600   35.7800 C   0  0  0  0  0  0  0  0  0  0  0  0
   31.3700   28.1000   34.4300 C   0  0  0  0  0  0  0  0  0  0  0  0
   30.1200   27.5900   34.0500 C   0  0  0  0  0  0  0  0  0  0  0  0
   29.1500   27.3400   35.0300 C   0  0  0  0  0  0  0  0  0  0  0  0
   27.8800   26.8900   34.6600 C   0  0  0  0  0  0  0  0  0  0  0  0
   27.4800   26.6100   33.3700 N   0  0  0  0  0  0  0  0  0  0  0  0
   31.0040   28.3198   38.2163 C   0  0  0  0  0  0  0  0  0  0  0  0
   30.7474   27.3754   39.2204 C   0  0  0  0  0  0  0  0  0  0  0  0
   31.1043   27.6486   40.5512 C   0  0  0  0  0  0  0  0  0  0  0  0
   30.8932   26.5775   41.5957 C   0  0  0  0  0  0  0  0  0  0  0  0
   31.9991   26.6066   42.5765 N   0  0  0  0  0  0  0  0  0  0  0  0
   31.7084   27.4623   43.7437 C   0  0  0  0  0  0  0  0  0  0  0  0
   31.2827   28.8746   43.3271 C   0  0  0  0  0  0  0  0  0  0  0  0
   31.9851   29.3158   42.1674 O   0  0  0  0  0  0  0  0  0  0  0  0
   31.6768   28.9080   40.8603 C   0  0  0  0  0  0  0  0  0  0  0  0
   31.9603   29.7943   39.8176 C   0  0  0  0  0  0  0  0  0  0  0  0
   31.6213   29.4872   38.5397 N   0  0  0  0  0  0  0  0  0  0  0  0
   32.4892   25.2632   42.9620 C   0  0  0  0  0  0  0  0  0  0  0  0
   31.4449   24.3972   43.6820 C   0  0  0  0  0  0  0  0  0  0  0  0
  1  2  1  0
  2  3  2  0
  2  4  1  0
  4  5  2  0
  5  6  1  0
  6  7  2  0
  7  8  1  0
  8  9  2  0
  9 10  1  0
 10 11  2  0
 11 12  1  0
 12 13  2  0
 13 14  1  0
  8 15  1  0
 15 16  2  0
 16 17  1  0
 17 18  1  0
 18 19  1  0
 19 20  1  0
 20 21  1  0
 21 22  1  0
 22 23  1  0
 23 24  1  0
 24 25  2  0
 19 26  1  0
 26 27  1  0
 13  4  1  0
 25 15  1  0
 12  7  1  0
 23 17  2  0
M  END
>  <AAScore>  (1) 
29.80590751497772

>  <RootName>  (1) 
./4ZLY/04_DeltaGEst/trajectory_01/rank_01/lead_0352

$$$$
