confid_13
     RDKit          3D

 27 29  0  0  0  0  0  0  0  0999 V2000
   24.5700   26.8800   35.5900 N   0  0  0  0  0  0  0  0  0  0  0  0
   25.5000   26.4000   34.6900 C   0  0  0  0  0  0  0  0  0  0  0  0
   25.1700   25.5200   33.9100 O   0  0  0  0  0  0  0  0  0  0  0  0
   26.8400   27.0200   34.7400 C   0  0  0  0  0  0  0  0  0  0  0  0
   27.3800   27.2800   35.9400 N   0  0  0  0  0  0  0  0  0  0  0  0
   28.6200   27.7400   36.0300 N   0  0  0  0  0  0  0  0  0  0  0  0
   29.3800   28.0000   34.9600 C   0  0  0  0  0  0  0  0  0  0  0  0
   30.6700   28.5000   35.1300 C   0  0  0  0  0  0  0  0  0  0  0  0
   31.5400   28.6100   34.0300 C   0  0  0  0  0  0  0  0  0  0  0  0
   31.0900   28.2200   32.7700 C   0  0  0  0  0  0  0  0  0  0  0  0
   29.8000   27.7000   32.6000 C   0  0  0  0  0  0  0  0  0  0  0  0
   28.9600   27.5500   33.7100 C   0  0  0  0  0  0  0  0  0  0  0  0
   27.6600   27.0300   33.5900 C   0  0  0  0  0  0  0  0  0  0  0  0
   27.1600   26.7400   32.3400 N   0  0  0  0  0  0  0  0  0  0  0  0
   32.8777   29.1290   34.2070 N   0  0  0  0  0  0  0  0  0  0  0  0
   33.0851   30.3853   34.9468 C   0  0  0  0  0  0  0  0  0  0  0  0
   33.9471   30.1774   36.1956 C   0  0  0  0  0  0  0  0  0  0  0  0
   33.4169   29.1279   36.9768 O   0  0  0  0  0  0  0  0  0  0  0  0
   34.2288   28.9329   38.1124 C   0  0  0  0  0  0  0  0  0  0  0  0
   33.9955   28.5522   33.4496 C   0  0  0  0  0  0  0  0  0  0  0  0
   34.1594   29.2718   32.2450 O   0  0  0  0  0  0  0  0  0  0  0  0
   35.1711   28.6906   31.4368 C   0  0  0  0  0  0  0  0  0  0  0  0
   35.9012   29.8164   30.6891 C   0  0  0  0  0  0  0  0  0  0  0  0
   34.9539   30.6188   29.7721 C   0  0  0  0  0  0  0  0  0  0  0  0
   33.7828   29.7833   29.2177 C   0  0  0  0  0  0  0  0  0  0  0  0
   34.1590   28.3059   29.0780 C   0  0  0  0  0  0  0  0  0  0  0  0
   34.5496   27.6824   30.4342 C   0  0  0  0  0  0  0  0  0  0  0  0
  1  2  1  0
  2  3  2  0
  2  4  1  0
  4  5  2  0
  5  6  1  0
  6  7  2  0
  7  8  1  0
  8  9  2  0
  9 10  1  0
 10 11  2  0
 11 12  1  0
 12 13  2  0
 13 14  1  0
  9 15  1  0
 15 16  1  0
 16 17  1  0
 17 18  1  0
 18 19  1  0
 15 20  1  0
 20 21  1  0
 21 22  1  0
 22 23  1  0
 23 24  1  0
 24 25  1  0
 25 26  1  0
 26 27  1  0
 13  4  1  0
 27 22  1  0
 12  7  1  0
M  END
>  <AAScore>  (1) 
132.39298977201733

>  <RootName>  (1) 
./4ZLY/04_DeltaGEst/trajectory_05/rank_01/lead_0381

$$$$
