confid_16
     RDKit          3D

 27 30  0  0  0  0  0  0  0  0999 V2000
   24.5500   26.3900   36.2500 N   0  0  0  0  0  0  0  0  0  0  0  0
   25.6000   26.1300   35.4000 C   0  0  0  0  0  0  0  0  0  0  0  0
   25.4300   25.4300   34.4200 O   0  0  0  0  0  0  0  0  0  0  0  0
   26.9800   26.6300   35.7100 C   0  0  0  0  0  0  0  0  0  0  0  0
   27.3200   26.8200   36.9800 N   0  0  0  0  0  0  0  0  0  0  0  0
   28.4700   27.4000   37.3100 N   0  0  0  0  0  0  0  0  0  0  0  0
   29.4000   27.6300   36.3700 C   0  0  0  0  0  0  0  0  0  0  0  0
   30.6600   28.0500   36.8000 C   0  0  0  0  0  0  0  0  0  0  0  0
   31.5700   28.3600   35.7800 C   0  0  0  0  0  0  0  0  0  0  0  0
   31.3700   28.1000   34.4300 C   0  0  0  0  0  0  0  0  0  0  0  0
   30.1200   27.5900   34.0500 C   0  0  0  0  0  0  0  0  0  0  0  0
   29.1500   27.3400   35.0300 C   0  0  0  0  0  0  0  0  0  0  0  0
   27.8800   26.8900   34.6600 C   0  0  0  0  0  0  0  0  0  0  0  0
   27.4800   26.6100   33.3700 N   0  0  0  0  0  0  0  0  0  0  0  0
   30.9583   28.3084   38.1770 N   0  0  0  0  0  0  0  0  0  0  0  0
   30.6089   29.6120   38.7548 C   0  0  0  0  0  0  0  0  0  0  0  0
   31.0453   29.6977   40.2194 C   0  0  0  0  0  0  0  0  0  0  0  0
   30.6707   28.4601   40.9177 N   0  0  0  0  0  0  0  0  0  0  0  0
   29.8573   28.5039   42.1063 C   0  0  0  0  0  0  0  0  0  0  0  0
   28.6941   29.2916   42.1447 C   0  0  0  0  0  0  0  0  0  0  0  0
   27.8963   29.3214   43.2921 C   0  0  0  0  0  0  0  0  0  0  0  0
   28.2513   28.5685   44.4209 C   0  0  0  0  0  0  0  0  0  0  0  0
   27.3719   28.5689   45.6362 C   0  0  0  0  0  0  0  0  0  0  0  0
   29.3957   27.7593   44.3762 C   0  0  0  0  0  0  0  0  0  0  0  0
   30.1957   27.7312   43.2299 C   0  0  0  0  0  0  0  0  0  0  0  0
   31.0490   27.1566   40.3461 C   0  0  0  0  0  0  0  0  0  0  0  0
   31.6894   27.3076   38.9599 C   0  0  0  0  0  0  0  0  0  0  0  0
  1  2  1  0
  2  3  2  0
  2  4  1  0
  4  5  2  0
  5  6  1  0
  6  7  2  0
  7  8  1  0
  8  9  2  0
  9 10  1  0
 10 11  2  0
 11 12  1  0
 12 13  2  0
 13 14  1  0
  8 15  1  0
 15 16  1  0
 16 17  1  0
 17 18  1  0
 18 19  1  0
 19 20  2  0
 20 21  1  0
 21 22  2  0
 22 23  1  0
 22 24  1  0
 24 25  2  0
 18 26  1  0
 26 27  1  0
 13  4  1  0
 27 15  1  0
 12  7  1  0
 25 19  1  0
M  END
>  <AAScore>  (1) 
18.24931934958689

>  <RootName>  (1) 
./4ZLY/04_DeltaGEst/trajectory_01/rank_01/lead_0179

$$$$
