confid_0
     RDKit          3D

 28 31  0  0  0  0  0  0  0  0999 V2000
   24.2000   26.2400   35.6900 N   0  0  0  0  0  0  0  0  0  0  0  0
   24.8500   26.2800   34.4800 C   0  0  0  0  0  0  0  0  0  0  0  0
   24.3100   25.7400   33.5400 O   0  0  0  0  0  0  0  0  0  0  0  0
   26.1800   26.9700   34.4700 C   0  0  0  0  0  0  0  0  0  0  0  0
   26.6500   27.6000   35.5500 N   0  0  0  0  0  0  0  0  0  0  0  0
   27.7900   28.2700   35.6200 N   0  0  0  0  0  0  0  0  0  0  0  0
   28.5400   28.3000   34.5100 C   0  0  0  0  0  0  0  0  0  0  0  0
   29.7700   28.9400   34.5600 C   0  0  0  0  0  0  0  0  0  0  0  0
   30.7000   28.8900   33.5000 C   0  0  0  0  0  0  0  0  0  0  0  0
   30.3700   28.1400   32.3700 C   0  0  0  0  0  0  0  0  0  0  0  0
   29.1200   27.5200   32.2800 C   0  0  0  0  0  0  0  0  0  0  0  0
   28.2100   27.6100   33.3300 C   0  0  0  0  0  0  0  0  0  0  0  0
   26.9700   26.9700   33.3100 C   0  0  0  0  0  0  0  0  0  0  0  0
   26.5300   26.2400   32.2200 N   0  0  0  0  0  0  0  0  0  0  0  0
   22.7755   26.0842   35.8396 C   0  0  0  0  0  0  0  0  0  0  0  0
   21.9456   26.1988   34.7676 N   0  0  0  0  0  0  0  0  0  0  0  0
   20.5917   26.0725   34.8551 C   0  0  0  0  0  0  0  0  0  0  0  0
   19.8094   26.3184   33.5921 C   0  0  0  0  0  0  0  0  0  0  0  0
   19.6934   25.0592   32.7079 C   0  0  0  0  0  0  0  0  0  0  0  0
   18.2780   24.6253   32.6246 N   0  0  0  0  0  0  0  0  0  0  0  0
   17.8623   24.4276   31.2263 C   0  0  0  0  0  0  0  0  0  0  0  0
   18.0012   23.3999   33.4078 C   0  0  0  0  0  0  0  0  0  0  0  0
   18.3015   23.5688   34.9067 C   0  0  0  0  0  0  0  0  0  0  0  0
   17.7143   24.8696   35.4945 C   0  0  0  0  0  0  0  0  0  0  0  0
   18.6390   25.5423   36.3534 O   0  0  0  0  0  0  0  0  0  0  0  0
   20.0071   25.7832   36.1201 C   0  0  0  0  0  0  0  0  0  0  0  0
   20.8477   25.7178   37.2366 C   0  0  0  0  0  0  0  0  0  0  0  0
   22.2265   25.8626   37.1040 C   0  0  0  0  0  0  0  0  0  0  0  0
  1  2  1  0
  2  3  2  0
  2  4  1  0
  4  5  2  0
  5  6  1  0
  6  7  2  0
  7  8  1  0
  8  9  2  0
  9 10  1  0
 10 11  2  0
 11 12  1  0
 12 13  2  0
 13 14  1  0
  1 15  1  0
 15 16  2  0
 16 17  1  0
 17 18  1  0
 18 19  1  0
 19 20  1  0
 20 21  1  0
 20 22  1  0
 22 23  1  0
 23 24  1  0
 24 25  1  0
 25 26  1  0
 26 27  1  0
 27 28  2  0
 13  4  1  0
 28 15  1  0
 12  7  1  0
 26 17  2  0
M  END
>  <AAScore>  (1) 
1265.544751953389

>  <RootName>  (1) 
./4ZLY/04_DeltaGEst/trajectory_04/rank_00/lead_0372

$$$$
