confid_11
     RDKit          3D

 29 32  0  0  0  0  0  0  0  0999 V2000
   24.5500   26.3900   36.2500 N   0  0  0  0  0  0  0  0  0  0  0  0
   25.6000   26.1300   35.4000 C   0  0  0  0  0  0  0  0  0  0  0  0
   25.4300   25.4300   34.4200 O   0  0  0  0  0  0  0  0  0  0  0  0
   26.9800   26.6300   35.7100 C   0  0  0  0  0  0  0  0  0  0  0  0
   27.3200   26.8200   36.9800 N   0  0  0  0  0  0  0  0  0  0  0  0
   28.4700   27.4000   37.3100 N   0  0  0  0  0  0  0  0  0  0  0  0
   29.4000   27.6300   36.3700 C   0  0  0  0  0  0  0  0  0  0  0  0
   30.6600   28.0500   36.8000 C   0  0  0  0  0  0  0  0  0  0  0  0
   31.5700   28.3600   35.7800 C   0  0  0  0  0  0  0  0  0  0  0  0
   31.3700   28.1000   34.4300 C   0  0  0  0  0  0  0  0  0  0  0  0
   30.1200   27.5900   34.0500 C   0  0  0  0  0  0  0  0  0  0  0  0
   29.1500   27.3400   35.0300 C   0  0  0  0  0  0  0  0  0  0  0  0
   27.8800   26.8900   34.6600 C   0  0  0  0  0  0  0  0  0  0  0  0
   27.4800   26.6100   33.3700 N   0  0  0  0  0  0  0  0  0  0  0  0
   30.9783   28.3155   38.1804 N   0  0  0  0  0  0  0  0  0  0  0  0
   32.1770   27.7399   38.7866 C   0  0  0  0  0  0  0  0  0  0  0  0
   33.0894   28.8674   39.2578 C   0  0  0  0  0  0  0  0  0  0  0  0
   32.3374   29.8932   40.0779 C   0  0  0  0  0  0  0  0  0  0  0  0
   33.0486   30.7500   40.9411 C   0  0  0  0  0  0  0  0  0  0  0  0
   34.4373   30.6248   41.0450 O   0  0  0  0  0  0  0  0  0  0  0  0
   35.3141   31.4375   40.2752 C   0  0  0  0  0  0  0  0  0  0  0  0
   32.3665   31.7211   41.7042 C   0  0  0  0  0  0  0  0  0  0  0  0
   33.1238   32.6224   42.6460 C   0  0  0  0  0  0  0  0  0  0  0  0
   30.9780   31.8890   41.5434 C   0  0  0  0  0  0  0  0  0  0  0  0
   30.2789   31.0544   40.6546 C   0  0  0  0  0  0  0  0  0  0  0  0
   30.9436   30.0665   39.9182 C   0  0  0  0  0  0  0  0  0  0  0  0
   30.1271   29.1794   39.0048 C   0  0  0  0  0  0  0  0  0  0  0  0
   30.3251   32.8938   42.2784 O   0  0  0  0  0  0  0  0  0  0  0  0
   28.9302   33.1723   42.2105 C   0  0  0  0  0  0  0  0  0  0  0  0
  1  2  1  0
  2  3  2  0
  2  4  1  0
  4  5  2  0
  5  6  1  0
  6  7  2  0
  7  8  1  0
  8  9  2  0
  9 10  1  0
 10 11  2  0
 11 12  1  0
 12 13  2  0
 13 14  1  0
  8 15  1  0
 15 16  1  0
 16 17  1  0
 17 18  1  0
 18 19  2  0
 19 20  1  0
 20 21  1  0
 19 22  1  0
 22 23  1  0
 22 24  2  0
 24 25  1  0
 25 26  2  0
 26 27  1  0
 24 28  1  0
 28 29  1  0
 13  4  1  0
 27 15  1  0
 12  7  1  0
 26 18  1  0
M  END
>  <AAScore>  (1) 
692.9018076176757

>  <RootName>  (1) 
./4ZLY/04_DeltaGEst/trajectory_01/rank_01/lead_0245

$$$$
