confid_13
     RDKit          3D

 27 30  0  0  0  0  0  0  0  0999 V2000
   25.3300   26.2600   34.7600 N   0  0  0  0  0  0  0  0  0  0  0  0
   26.1200   25.9200   33.6900 C   0  0  0  0  0  0  0  0  0  0  0  0
   25.6300   25.1100   32.9400 O   0  0  0  0  0  0  0  0  0  0  0  0
   27.5200   26.3800   33.4600 C   0  0  0  0  0  0  0  0  0  0  0  0
   28.1600   26.6300   34.6100 N   0  0  0  0  0  0  0  0  0  0  0  0
   29.4800   26.8500   34.5700 N   0  0  0  0  0  0  0  0  0  0  0  0
   30.1900   26.7800   33.4400 C   0  0  0  0  0  0  0  0  0  0  0  0
   31.5600   27.0500   33.5000 C   0  0  0  0  0  0  0  0  0  0  0  0
   32.2700   27.2400   32.3100 C   0  0  0  0  0  0  0  0  0  0  0  0
   31.6100   27.2500   31.0800 C   0  0  0  0  0  0  0  0  0  0  0  0
   30.2700   26.8700   31.0600 C   0  0  0  0  0  0  0  0  0  0  0  0
   29.5100   26.6900   32.2300 C   0  0  0  0  0  0  0  0  0  0  0  0
   28.1400   26.4100   32.2000 C   0  0  0  0  0  0  0  0  0  0  0  0
   27.4300   26.1300   31.0500 N   0  0  0  0  0  0  0  0  0  0  0  0
   24.2235   25.4771   35.2598 C   0  0  0  0  0  0  0  0  0  0  0  0
   24.1415   24.1536   34.9596 N   0  0  0  0  0  0  0  0  0  0  0  0
   23.1533   23.3299   35.4051 C   0  0  0  0  0  0  0  0  0  0  0  0
   23.3098   21.8796   35.0225 C   0  0  0  0  0  0  0  0  0  0  0  0
   22.0621   21.1213   34.8786 N   0  0  0  0  0  0  0  0  0  0  0  0
   21.1416   21.6512   33.8586 C   0  0  0  0  0  0  0  0  0  0  0  0
   21.4458   20.8026   36.1715 C   0  0  0  0  0  0  0  0  0  0  0  0
   20.6401   21.9219   36.7437 C   0  0  0  0  0  0  0  0  0  0  0  0
   21.0111   23.1648   36.7840 N   0  0  0  0  0  0  0  0  0  0  0  0
   22.1615   23.8637   36.2721 C   0  0  0  0  0  0  0  0  0  0  0  0
   22.2343   25.2236   36.5984 C   0  0  0  0  0  0  0  0  0  0  0  0
   23.2501   26.0460   36.0996 C   0  0  0  0  0  0  0  0  0  0  0  0
   23.2822   27.5028   36.4756 C   0  0  0  0  0  0  0  0  0  0  0  0
  1  2  1  0
  2  3  2  0
  2  4  1  0
  4  5  2  0
  5  6  1  0
  6  7  2  0
  7  8  1  0
  8  9  2  0
  9 10  1  0
 10 11  2  0
 11 12  1  0
 12 13  2  0
 13 14  1  0
  1 15  1  0
 15 16  2  0
 16 17  1  0
 17 18  1  0
 18 19  1  0
 19 20  1  0
 19 21  1  0
 21 22  1  0
 22 23  2  0
 23 24  1  0
 24 25  1  0
 25 26  2  0
 26 27  1  0
 13  4  1  0
 26 15  1  0
 12  7  1  0
 24 17  2  0
M  END
>  <AAScore>  (1) 
3141.662203539

>  <RootName>  (1) 
./4ZLY/04_DeltaGEst/trajectory_03/rank_00/lead_0491

$$$$
