confid_8
     RDKit          3D

 27 30  0  0  0  0  0  0  0  0999 V2000
   24.5700   26.8800   35.5900 N   0  0  0  0  0  0  0  0  0  0  0  0
   25.5000   26.4000   34.6900 C   0  0  0  0  0  0  0  0  0  0  0  0
   25.1700   25.5200   33.9100 O   0  0  0  0  0  0  0  0  0  0  0  0
   26.8400   27.0200   34.7400 C   0  0  0  0  0  0  0  0  0  0  0  0
   27.3800   27.2800   35.9400 N   0  0  0  0  0  0  0  0  0  0  0  0
   28.6200   27.7400   36.0300 N   0  0  0  0  0  0  0  0  0  0  0  0
   29.3800   28.0000   34.9600 C   0  0  0  0  0  0  0  0  0  0  0  0
   30.6700   28.5000   35.1300 C   0  0  0  0  0  0  0  0  0  0  0  0
   31.5400   28.6100   34.0300 C   0  0  0  0  0  0  0  0  0  0  0  0
   31.0900   28.2200   32.7700 C   0  0  0  0  0  0  0  0  0  0  0  0
   29.8000   27.7000   32.6000 C   0  0  0  0  0  0  0  0  0  0  0  0
   28.9600   27.5500   33.7100 C   0  0  0  0  0  0  0  0  0  0  0  0
   27.6600   27.0300   33.5900 C   0  0  0  0  0  0  0  0  0  0  0  0
   27.1600   26.7400   32.3400 N   0  0  0  0  0  0  0  0  0  0  0  0
   23.1699   26.5817   35.4970 C   0  0  0  0  0  0  0  0  0  0  0  0
   22.5600   26.0826   36.5634 N   0  0  0  0  0  0  0  0  0  0  0  0
   21.1537   25.7157   36.6208 C   0  0  0  0  0  0  0  0  0  0  0  0
   20.4578   25.9018   35.5179 C   0  0  0  0  0  0  0  0  0  0  0  0
   19.2438   25.8491   34.7617 C   0  0  2  0  0  0  0  0  0  0  0  0
   18.7244   24.4206   34.5400 C   0  0  0  0  0  0  0  0  0  0  0  0
   17.6667   24.4485   33.6493 F   0  0  0  0  0  0  0  0  0  0  0  0
   19.7176   23.5974   34.0329 F   0  0  0  0  0  0  0  0  0  0  0  0
   18.2796   23.8998   35.7418 F   0  0  0  0  0  0  0  0  0  0  0  0
   19.9107   26.4095   33.5869 C   0  0  0  0  0  0  0  0  0  0  0  0
   21.0661   26.4657   34.3237 C   0  0  0  0  0  0  0  0  0  0  0  0
   22.4278   26.8547   34.2641 N   0  0  0  0  0  0  0  0  0  0  0  0
   22.9787   27.5334   33.0932 C   0  0  0  0  0  0  0  0  0  0  0  0
  1  2  1  0
  2  3  2  0
  2  4  1  0
  4  5  2  0
  5  6  1  0
  6  7  2  0
  7  8  1  0
  8  9  2  0
  9 10  1  0
 10 11  2  0
 11 12  1  0
 12 13  2  0
 13 14  1  0
  1 15  1  0
 15 16  2  0
 16 17  1  0
 17 18  2  0
 18 19  1  0
 19 20  1  6
 20 21  1  0
 20 22  1  0
 20 23  1  0
 19 24  1  0
 24 25  2  0
 25 26  1  0
 26 27  1  0
 13  4  1  0
 26 15  1  0
 12  7  1  0
 25 18  1  0
M  END
>  <AAScore>  (1) 
1561.1227578879732

>  <RootName>  (1) 
./4ZLY/04_DeltaGEst/trajectory_05/rank_00/lead_0428

$$$$
