confid_3
     RDKit          3D

 30 33  0  0  0  0  0  0  0  0999 V2000
   25.3300   26.2600   34.7600 N   0  0  0  0  0  0  0  0  0  0  0  0
   26.1200   25.9200   33.6900 C   0  0  0  0  0  0  0  0  0  0  0  0
   25.6300   25.1100   32.9400 O   0  0  0  0  0  0  0  0  0  0  0  0
   27.5200   26.3800   33.4600 C   0  0  0  0  0  0  0  0  0  0  0  0
   28.1600   26.6300   34.6100 N   0  0  0  0  0  0  0  0  0  0  0  0
   29.4800   26.8500   34.5700 N   0  0  0  0  0  0  0  0  0  0  0  0
   30.1900   26.7800   33.4400 C   0  0  0  0  0  0  0  0  0  0  0  0
   31.5600   27.0500   33.5000 C   0  0  0  0  0  0  0  0  0  0  0  0
   32.2700   27.2400   32.3100 C   0  0  0  0  0  0  0  0  0  0  0  0
   31.6100   27.2500   31.0800 C   0  0  0  0  0  0  0  0  0  0  0  0
   30.2700   26.8700   31.0600 C   0  0  0  0  0  0  0  0  0  0  0  0
   29.5100   26.6900   32.2300 C   0  0  0  0  0  0  0  0  0  0  0  0
   28.1400   26.4100   32.2000 C   0  0  0  0  0  0  0  0  0  0  0  0
   27.4300   26.1300   31.0500 N   0  0  0  0  0  0  0  0  0  0  0  0
   27.6020   24.8280   30.3925 C   0  0  0  0  0  0  0  0  0  0  0  0
   27.0102   24.8506   28.9838 C   0  0  0  0  0  0  0  0  0  0  0  0
   27.3132   26.1525   28.3635 N   0  0  0  0  0  0  0  0  0  0  0  0
   27.0658   26.1282   26.9078 C   0  0  0  0  0  0  0  0  0  0  0  0
   28.2096   25.4376   26.1914 C   0  0  0  0  0  0  0  0  0  0  0  0
   28.0830   24.1839   25.5225 C   0  0  0  0  0  0  0  0  0  0  0  0
   29.2124   23.6562   24.8461 C   0  0  0  0  0  0  0  0  0  0  0  0
   29.1481   22.1502   23.9339 Cl  0  0  0  0  0  0  0  0  0  0  0  0
   30.4310   24.3390   24.8688 C   0  0  0  0  0  0  0  0  0  0  0  0
   30.5537   25.5448   25.5509 C   0  0  0  0  0  0  0  0  0  0  0  0
   29.4536   26.0913   26.2036 C   0  0  0  0  0  0  0  0  0  0  0  0
   26.7614   23.4379   25.4676 C   0  0  0  0  0  0  0  0  0  0  0  0
   25.9179   23.9096   24.2801 C   0  0  0  0  0  0  0  0  0  0  0  0
   24.6818   23.2479   24.2712 O   0  0  0  0  0  0  0  0  0  0  0  0
   26.5303   27.2342   29.0032 C   0  0  0  0  0  0  0  0  0  0  0  0
   26.4522   27.0998   30.5400 C   0  0  0  0  0  0  0  0  0  0  0  0
  1  2  1  0
  2  3  2  0
  2  4  1  0
  4  5  2  0
  5  6  1  0
  6  7  2  0
  7  8  1  0
  8  9  2  0
  9 10  1  0
 10 11  2  0
 11 12  1  0
 12 13  2  0
 13 14  1  0
 14 15  1  0
 15 16  1  0
 16 17  1  0
 17 18  1  0
 18 19  1  0
 19 20  2  0
 20 21  1  0
 21 22  1  0
 21 23  2  0
 23 24  1  0
 24 25  2  0
 20 26  1  0
 26 27  1  0
 27 28  1  0
 17 29  1  0
 29 30  1  0
 13  4  1  0
 30 14  1  0
 12  7  1  0
 25 19  1  0
M  END
>  <AAScore>  (1) 
-2.219460591222618

>  <RootName>  (1) 
./4ZLY/04_DeltaGEst/trajectory_03/rank_01/lead_0441

$$$$
