confid_15
     RDKit          3D

 29 32  0  0  0  0  0  0  0  0999 V2000
   25.3300   26.2600   34.7600 N   0  0  0  0  0  0  0  0  0  0  0  0
   26.1200   25.9200   33.6900 C   0  0  0  0  0  0  0  0  0  0  0  0
   25.6300   25.1100   32.9400 O   0  0  0  0  0  0  0  0  0  0  0  0
   27.5200   26.3800   33.4600 C   0  0  0  0  0  0  0  0  0  0  0  0
   28.1600   26.6300   34.6100 N   0  0  0  0  0  0  0  0  0  0  0  0
   29.4800   26.8500   34.5700 N   0  0  0  0  0  0  0  0  0  0  0  0
   30.1900   26.7800   33.4400 C   0  0  0  0  0  0  0  0  0  0  0  0
   31.5600   27.0500   33.5000 C   0  0  0  0  0  0  0  0  0  0  0  0
   32.2700   27.2400   32.3100 C   0  0  0  0  0  0  0  0  0  0  0  0
   31.6100   27.2500   31.0800 C   0  0  0  0  0  0  0  0  0  0  0  0
   30.2700   26.8700   31.0600 C   0  0  0  0  0  0  0  0  0  0  0  0
   29.5100   26.6900   32.2300 C   0  0  0  0  0  0  0  0  0  0  0  0
   28.1400   26.4100   32.2000 C   0  0  0  0  0  0  0  0  0  0  0  0
   27.4300   26.1300   31.0500 N   0  0  0  0  0  0  0  0  0  0  0  0
   27.5806   24.8157   30.4104 C   0  0  0  0  0  0  0  0  0  0  0  0
   26.9510   24.8186   29.0194 C   0  0  0  0  0  0  0  0  0  0  0  0
   27.2993   26.0868   28.3527 N   0  0  0  0  0  0  0  0  0  0  0  0
   27.0216   26.0280   26.9037 C   0  0  0  0  0  0  0  0  0  0  0  0
   28.0813   25.2317   26.2065 C   0  0  0  0  0  0  0  0  0  0  0  0
   29.3651   25.6798   26.1849 N   0  0  0  0  0  0  0  0  0  0  0  0
   30.3524   24.9605   25.5880 C   0  0  0  0  0  0  0  0  0  0  0  0
   31.7522   25.5014   25.5576 C   0  0  0  0  0  0  0  0  0  0  0  0
   32.0514   26.1569   24.2136 C   0  0  0  0  0  0  0  0  0  0  0  0
   30.0415   23.7420   24.9715 C   0  0  0  0  0  0  0  0  0  0  0  0
   28.7186   23.2904   25.0087 C   0  0  0  0  0  0  0  0  0  0  0  0
   28.3306   22.0119   24.3368 C   0  0  0  0  0  0  0  0  0  0  0  0
   27.7681   24.0463   25.6194 N   0  0  0  0  0  0  0  0  0  0  0  0
   26.5777   27.2216   28.9736 C   0  0  0  0  0  0  0  0  0  0  0  0
   26.4853   27.1189   30.5143 C   0  0  0  0  0  0  0  0  0  0  0  0
  1  2  1  0
  2  3  2  0
  2  4  1  0
  4  5  2  0
  5  6  1  0
  6  7  2  0
  7  8  1  0
  8  9  2  0
  9 10  1  0
 10 11  2  0
 11 12  1  0
 12 13  2  0
 13 14  1  0
 14 15  1  0
 15 16  1  0
 16 17  1  0
 17 18  1  0
 18 19  1  0
 19 20  2  0
 20 21  1  0
 21 22  1  0
 22 23  1  0
 21 24  2  0
 24 25  1  0
 25 26  1  0
 25 27  2  0
 17 28  1  0
 28 29  1  0
 13  4  1  0
 29 14  1  0
 12  7  1  0
 27 19  1  0
M  END
>  <AAScore>  (1) 
-2.3972367580855427

>  <RootName>  (1) 
./4ZLY/04_DeltaGEst/trajectory_03/rank_01/lead_0319

$$$$
