confid_9
     RDKit          3D

 27 30  0  0  0  0  0  0  0  0999 V2000
   24.5500   26.3900   36.2500 N   0  0  0  0  0  0  0  0  0  0  0  0
   25.6000   26.1300   35.4000 C   0  0  0  0  0  0  0  0  0  0  0  0
   25.4300   25.4300   34.4200 O   0  0  0  0  0  0  0  0  0  0  0  0
   26.9800   26.6300   35.7100 C   0  0  0  0  0  0  0  0  0  0  0  0
   27.3200   26.8200   36.9800 N   0  0  0  0  0  0  0  0  0  0  0  0
   28.4700   27.4000   37.3100 N   0  0  0  0  0  0  0  0  0  0  0  0
   29.4000   27.6300   36.3700 C   0  0  0  0  0  0  0  0  0  0  0  0
   30.6600   28.0500   36.8000 C   0  0  0  0  0  0  0  0  0  0  0  0
   31.5700   28.3600   35.7800 C   0  0  0  0  0  0  0  0  0  0  0  0
   31.3700   28.1000   34.4300 C   0  0  0  0  0  0  0  0  0  0  0  0
   30.1200   27.5900   34.0500 C   0  0  0  0  0  0  0  0  0  0  0  0
   29.1500   27.3400   35.0300 C   0  0  0  0  0  0  0  0  0  0  0  0
   27.8800   26.8900   34.6600 C   0  0  0  0  0  0  0  0  0  0  0  0
   27.4800   26.6100   33.3700 N   0  0  0  0  0  0  0  0  0  0  0  0
   31.0189   28.2817   38.2216 C   0  0  0  0  0  0  0  0  0  0  0  0
   30.6282   27.5066   39.3156 C   0  0  0  0  0  0  0  0  0  0  0  0
   31.1577   27.9648   40.5290 C   0  0  0  0  0  0  0  0  0  0  0  0
   30.8500   27.3732   41.8695 C   0  0  0  0  0  0  0  0  0  0  0  0
   31.8939   27.7037   42.8556 N   0  0  0  0  0  0  0  0  0  0  0  0
   32.6665   28.9261   42.7521 C   0  0  0  0  0  0  0  0  0  0  0  0
   33.4239   29.2782   43.6968 O   0  0  0  0  0  0  0  0  0  0  0  0
   32.5707   29.8155   41.5416 C   0  0  0  0  0  0  0  0  0  0  0  0
   31.9564   29.0843   40.3967 C   0  0  0  0  0  0  0  0  0  0  0  0
   32.0190   29.5255   38.7780 S   0  0  0  0  0  0  0  0  0  0  0  0
   32.0380   26.8438   44.0379 C   0  0  0  0  0  0  0  0  0  0  0  0
   33.3173   26.0080   43.9332 C   0  0  0  0  0  0  0  0  0  0  0  0
   33.4783   25.0899   45.1410 C   0  0  0  0  0  0  0  0  0  0  0  0
  1  2  1  0
  2  3  2  0
  2  4  1  0
  4  5  2  0
  5  6  1  0
  6  7  2  0
  7  8  1  0
  8  9  2  0
  9 10  1  0
 10 11  2  0
 11 12  1  0
 12 13  2  0
 13 14  1  0
  8 15  1  0
 15 16  2  0
 16 17  1  0
 17 18  1  0
 18 19  1  0
 19 20  1  0
 20 21  2  0
 20 22  1  0
 22 23  1  0
 23 24  1  0
 19 25  1  0
 25 26  1  0
 26 27  1  0
 13  4  1  0
 24 15  1  0
 12  7  1  0
 23 17  2  0
M  END
>  <AAScore>  (1) 
378.81626069951386

>  <RootName>  (1) 
./4ZLY/04_DeltaGEst/trajectory_01/rank_01/lead_0365

$$$$
