confid_12
     RDKit          3D

 27 30  0  0  0  0  0  0  0  0999 V2000
   24.2000   26.2400   35.6900 N   0  0  0  0  0  0  0  0  0  0  0  0
   24.8500   26.2800   34.4800 C   0  0  0  0  0  0  0  0  0  0  0  0
   24.3100   25.7400   33.5400 O   0  0  0  0  0  0  0  0  0  0  0  0
   26.1800   26.9700   34.4700 C   0  0  0  0  0  0  0  0  0  0  0  0
   26.6500   27.6000   35.5500 N   0  0  0  0  0  0  0  0  0  0  0  0
   27.7900   28.2700   35.6200 N   0  0  0  0  0  0  0  0  0  0  0  0
   28.5400   28.3000   34.5100 C   0  0  0  0  0  0  0  0  0  0  0  0
   29.7700   28.9400   34.5600 C   0  0  0  0  0  0  0  0  0  0  0  0
   30.7000   28.8900   33.5000 C   0  0  0  0  0  0  0  0  0  0  0  0
   30.3700   28.1400   32.3700 C   0  0  0  0  0  0  0  0  0  0  0  0
   29.1200   27.5200   32.2800 C   0  0  0  0  0  0  0  0  0  0  0  0
   28.2100   27.6100   33.3300 C   0  0  0  0  0  0  0  0  0  0  0  0
   26.9700   26.9700   33.3100 C   0  0  0  0  0  0  0  0  0  0  0  0
   26.5300   26.2400   32.2200 N   0  0  0  0  0  0  0  0  0  0  0  0
   22.7798   26.0460   35.8217 C   0  0  0  0  0  0  0  0  0  0  0  0
   21.9042   26.1848   34.8054 N   0  0  0  0  0  0  0  0  0  0  0  0
   20.6979   26.0030   35.3837 C   0  0  0  0  0  0  0  0  0  0  0  0
   19.4125   26.0668   34.5955 C   0  0  0  0  0  0  0  0  0  0  0  0
   18.2068   26.6471   35.3647 C   0  0  0  0  0  0  0  0  0  0  0  0
   18.6473   27.5422   36.4592 N   0  0  0  0  0  0  0  0  0  0  0  0
   17.7103   28.6642   36.6282 C   0  0  0  0  0  0  0  0  0  0  0  0
   18.7943   26.8175   37.7427 C   0  0  0  0  0  0  0  0  0  0  0  0
   19.6528   25.5449   37.6224 C   0  0  0  0  0  0  0  0  0  0  0  0
   20.7824   25.7527   36.7121 N   0  0  0  0  0  0  0  0  0  0  0  0
   22.1029   25.7738   36.9976 C   0  0  0  0  0  0  0  0  0  0  0  0
   22.7131   25.6014   38.3641 C   0  0  0  0  0  0  0  0  0  0  0  0
   22.7247   26.9245   39.1204 C   0  0  0  0  0  0  0  0  0  0  0  0
  1  2  1  0
  2  3  2  0
  2  4  1  0
  4  5  2  0
  5  6  1  0
  6  7  2  0
  7  8  1  0
  8  9  2  0
  9 10  1  0
 10 11  2  0
 11 12  1  0
 12 13  2  0
 13 14  1  0
  1 15  1  0
 15 16  1  0
 16 17  2  0
 17 18  1  0
 18 19  1  0
 19 20  1  0
 20 21  1  0
 20 22  1  0
 22 23  1  0
 23 24  1  0
 24 25  1  0
 25 26  1  0
 26 27  1  0
 13  4  1  0
 25 15  2  0
 12  7  1  0
 24 17  1  0
M  END
>  <AAScore>  (1) 
624.6058914610566

>  <RootName>  (1) 
./4ZLY/04_DeltaGEst/trajectory_04/rank_00/lead_0169

$$$$
