confid_14
     RDKit          3D

 29 32  0  0  0  0  0  0  0  0999 V2000
   24.6900   26.1200   35.5300 N   0  0  0  0  0  0  0  0  0  0  0  0
   25.6600   25.6700   34.6600 C   0  0  0  0  0  0  0  0  0  0  0  0
   25.2400   25.0100   33.7200 O   0  0  0  0  0  0  0  0  0  0  0  0
   27.0300   26.2200   34.8800 C   0  0  0  0  0  0  0  0  0  0  0  0
   27.3500   26.7300   36.0700 N   0  0  0  0  0  0  0  0  0  0  0  0
   28.5700   27.1800   36.3300 N   0  0  0  0  0  0  0  0  0  0  0  0
   29.5300   27.1100   35.3900 C   0  0  0  0  0  0  0  0  0  0  0  0
   30.8300   27.5700   35.6500 C   0  0  0  0  0  0  0  0  0  0  0  0
   31.8500   27.5400   34.6900 C   0  0  0  0  0  0  0  0  0  0  0  0
   31.5100   27.1200   33.4000 C   0  0  0  0  0  0  0  0  0  0  0  0
   30.2200   26.6300   33.1100 C   0  0  0  0  0  0  0  0  0  0  0  0
   29.2400   26.6600   34.1000 C   0  0  0  0  0  0  0  0  0  0  0  0
   27.9300   26.2600   33.8100 C   0  0  0  0  0  0  0  0  0  0  0  0
   27.5200   25.7100   32.6100 N   0  0  0  0  0  0  0  0  0  0  0  0
   31.1316   28.1302   36.9391 N   0  0  0  0  0  0  0  0  0  0  0  0
   32.2050   27.5477   37.7492 C   0  0  0  0  0  0  0  0  0  0  0  0
   31.9596   27.7822   39.2544 C   0  0  0  0  0  0  0  0  0  0  0  0
   31.2842   29.0705   39.5823 N   0  0  0  0  0  0  0  0  0  0  0  0
   31.8362   29.6431   40.8320 C   0  0  0  0  0  0  0  0  0  0  0  0
   30.9394   30.7237   41.3802 C   0  0  0  0  0  0  0  0  0  0  0  0
   29.6762   30.5238   41.9088 C   0  0  0  0  0  0  0  0  0  0  0  0
   29.1705   31.7757   42.2020 C   0  0  0  0  0  0  0  0  0  0  0  0
   30.0623   32.7295   41.8589 N   0  0  0  0  0  0  0  0  0  0  0  0
   29.8610   34.1701   42.0387 C   0  0  0  0  0  0  0  0  0  0  0  0
   30.4265   34.6255   43.3823 C   0  0  0  0  0  0  0  0  0  0  0  0
   31.1599   32.0967   41.3759 C   0  0  0  0  0  0  0  0  0  0  0  0
   32.3853   32.7840   40.8345 C   0  0  0  0  0  0  0  0  0  0  0  0
   31.3401   30.0466   38.4752 C   0  0  0  0  0  0  0  0  0  0  0  0
   30.6281   29.4723   37.2517 C   0  0  0  0  0  0  0  0  0  0  0  0
  1  2  1  0
  2  3  2  0
  2  4  1  0
  4  5  2  0
  5  6  1  0
  6  7  2  0
  7  8  1  0
  8  9  2  0
  9 10  1  0
 10 11  2  0
 11 12  1  0
 12 13  2  0
 13 14  1  0
  8 15  1  0
 15 16  1  0
 16 17  1  0
 17 18  1  0
 18 19  1  0
 19 20  1  0
 20 21  1  0
 21 22  2  0
 22 23  1  0
 23 24  1  0
 24 25  1  0
 23 26  1  0
 26 27  1  0
 18 28  1  0
 28 29  1  0
 13  4  1  0
 29 15  1  0
 12  7  1  0
 26 20  2  0
M  END
>  <AAScore>  (1) 
4.767542624338516

>  <RootName>  (1) 
./4ZLY/04_DeltaGEst/trajectory_02/rank_01/lead_0333

$$$$
