confid_2
     RDKit          3D

 28 31  0  0  0  0  0  0  0  0999 V2000
   24.5500   26.3900   36.2500 N   0  0  0  0  0  0  0  0  0  0  0  0
   25.6000   26.1300   35.4000 C   0  0  0  0  0  0  0  0  0  0  0  0
   25.4300   25.4300   34.4200 O   0  0  0  0  0  0  0  0  0  0  0  0
   26.9800   26.6300   35.7100 C   0  0  0  0  0  0  0  0  0  0  0  0
   27.3200   26.8200   36.9800 N   0  0  0  0  0  0  0  0  0  0  0  0
   28.4700   27.4000   37.3100 N   0  0  0  0  0  0  0  0  0  0  0  0
   29.4000   27.6300   36.3700 C   0  0  0  0  0  0  0  0  0  0  0  0
   30.6600   28.0500   36.8000 C   0  0  0  0  0  0  0  0  0  0  0  0
   31.5700   28.3600   35.7800 C   0  0  0  0  0  0  0  0  0  0  0  0
   31.3700   28.1000   34.4300 C   0  0  0  0  0  0  0  0  0  0  0  0
   30.1200   27.5900   34.0500 C   0  0  0  0  0  0  0  0  0  0  0  0
   29.1500   27.3400   35.0300 C   0  0  0  0  0  0  0  0  0  0  0  0
   27.8800   26.8900   34.6600 C   0  0  0  0  0  0  0  0  0  0  0  0
   27.4800   26.6100   33.3700 N   0  0  0  0  0  0  0  0  0  0  0  0
   30.9760   28.2994   38.1817 N   0  0  0  0  0  0  0  0  0  0  0  0
   30.2625   29.3600   38.9112 C   0  0  0  0  0  0  0  0  0  0  0  0
   29.4205   28.8159   40.0841 C   0  0  0  0  0  0  0  0  0  0  0  0
   29.7874   27.3966   40.5454 C   0  0  0  0  0  0  0  0  0  0  0  0
   31.1360   27.3323   41.1494 N   0  0  0  0  0  0  0  0  0  0  0  0
   31.3903   26.0465   41.8380 C   0  0  0  0  0  0  0  0  0  0  0  0
   31.5197   24.8826   40.8923 C   0  0  0  0  0  0  0  0  0  0  0  0
   32.6914   24.3772   40.3618 C   0  0  0  0  0  0  0  0  0  0  0  0
   32.4075   23.3843   39.5501 O   0  0  0  0  0  0  0  0  0  0  0  0
   31.1041   23.2170   39.5310 C   0  0  0  0  0  0  0  0  0  0  0  0
   30.4036   22.1967   38.6990 C   0  0  0  0  0  0  0  0  0  0  0  0
   30.4905   24.1341   40.3596 C   0  0  0  0  0  0  0  0  0  0  0  0
   32.2660   27.7846   40.2967 C   0  0  0  0  0  0  0  0  0  0  0  0
   32.0805   27.5327   38.7839 C   0  0  0  0  0  0  0  0  0  0  0  0
  1  2  1  0
  2  3  2  0
  2  4  1  0
  4  5  2  0
  5  6  1  0
  6  7  2  0
  7  8  1  0
  8  9  2  0
  9 10  1  0
 10 11  2  0
 11 12  1  0
 12 13  2  0
 13 14  1  0
  8 15  1  0
 15 16  1  0
 16 17  1  0
 17 18  1  0
 18 19  1  0
 19 20  1  0
 20 21  1  0
 21 22  2  0
 22 23  1  0
 23 24  1  0
 24 25  1  0
 24 26  2  0
 19 27  1  0
 27 28  1  0
 13  4  1  0
 28 15  1  0
 12  7  1  0
 26 21  1  0
M  END
>  <AAScore>  (1) 
123.62722350706696

>  <RootName>  (1) 
./4ZLY/04_DeltaGEst/trajectory_01/rank_01/lead_0410

$$$$
