confid_9
     RDKit          3D

 27 30  0  0  0  0  0  0  0  0999 V2000
   25.3300   26.2600   34.7600 N   0  0  0  0  0  0  0  0  0  0  0  0
   26.1200   25.9200   33.6900 C   0  0  0  0  0  0  0  0  0  0  0  0
   25.6300   25.1100   32.9400 O   0  0  0  0  0  0  0  0  0  0  0  0
   27.5200   26.3800   33.4600 C   0  0  0  0  0  0  0  0  0  0  0  0
   28.1600   26.6300   34.6100 N   0  0  0  0  0  0  0  0  0  0  0  0
   29.4800   26.8500   34.5700 N   0  0  0  0  0  0  0  0  0  0  0  0
   30.1900   26.7800   33.4400 C   0  0  0  0  0  0  0  0  0  0  0  0
   31.5600   27.0500   33.5000 C   0  0  0  0  0  0  0  0  0  0  0  0
   32.2700   27.2400   32.3100 C   0  0  0  0  0  0  0  0  0  0  0  0
   31.6100   27.2500   31.0800 C   0  0  0  0  0  0  0  0  0  0  0  0
   30.2700   26.8700   31.0600 C   0  0  0  0  0  0  0  0  0  0  0  0
   29.5100   26.6900   32.2300 C   0  0  0  0  0  0  0  0  0  0  0  0
   28.1400   26.4100   32.2000 C   0  0  0  0  0  0  0  0  0  0  0  0
   27.4300   26.1300   31.0500 N   0  0  0  0  0  0  0  0  0  0  0  0
   23.9064   26.4582   34.7089 C   0  0  0  0  0  0  0  0  0  0  0  0
   23.1969   26.4535   35.8774 N   0  0  0  0  0  0  0  0  0  0  0  0
   21.8591   26.6729   35.8478 C   0  0  0  0  0  0  0  0  0  0  0  0
   20.9261   26.7740   37.0021 C   0  0  0  0  0  0  0  0  0  0  0  0
   19.5871   27.1883   36.3287 C   0  0  0  0  0  0  0  0  0  0  0  0
   19.8546   27.2326   34.8882 N   0  0  0  0  0  0  0  0  0  0  0  0
   18.9050   27.6622   33.8647 C   0  0  0  0  0  0  0  0  0  0  0  0
   18.4884   26.4740   32.9908 C   0  0  2  0  0  0  0  0  0  0  0  0
   17.5272   26.9153   31.8900 C   0  0  0  0  0  0  0  0  0  0  0  0
   17.8681   25.5169   33.7798 F   0  0  0  0  0  0  0  0  0  0  0  0
   21.2170   26.9267   34.6809 C   0  0  0  0  0  0  0  0  0  0  0  0
   21.8824   26.9754   33.5017 N   0  0  0  0  0  0  0  0  0  0  0  0
   23.2255   26.7335   33.4911 C   0  0  0  0  0  0  0  0  0  0  0  0
  1  2  1  0
  2  3  2  0
  2  4  1  0
  4  5  2  0
  5  6  1  0
  6  7  2  0
  7  8  1  0
  8  9  2  0
  9 10  1  0
 10 11  2  0
 11 12  1  0
 12 13  2  0
 13 14  1  0
  1 15  1  0
 15 16  2  0
 16 17  1  0
 17 18  1  0
 18 19  1  0
 19 20  1  0
 20 21  1  0
 21 22  1  0
 22 23  1  6
 22 24  1  0
 20 25  1  0
 25 26  1  0
 26 27  2  0
 13  4  1  0
 27 15  1  0
 12  7  1  0
 25 17  2  0
M  END
>  <AAScore>  (1) 
264.0237897336741

>  <RootName>  (1) 
./4ZLY/04_DeltaGEst/trajectory_03/rank_00/lead_0062

$$$$
