confid_7
     RDKit          3D

 26 29  0  0  0  0  0  0  0  0999 V2000
   24.5700   26.8800   35.5900 N   0  0  0  0  0  0  0  0  0  0  0  0
   25.5000   26.4000   34.6900 C   0  0  0  0  0  0  0  0  0  0  0  0
   25.1700   25.5200   33.9100 O   0  0  0  0  0  0  0  0  0  0  0  0
   26.8400   27.0200   34.7400 C   0  0  0  0  0  0  0  0  0  0  0  0
   27.3800   27.2800   35.9400 N   0  0  0  0  0  0  0  0  0  0  0  0
   28.6200   27.7400   36.0300 N   0  0  0  0  0  0  0  0  0  0  0  0
   29.3800   28.0000   34.9600 C   0  0  0  0  0  0  0  0  0  0  0  0
   30.6700   28.5000   35.1300 C   0  0  0  0  0  0  0  0  0  0  0  0
   31.5400   28.6100   34.0300 C   0  0  0  0  0  0  0  0  0  0  0  0
   31.0900   28.2200   32.7700 C   0  0  0  0  0  0  0  0  0  0  0  0
   29.8000   27.7000   32.6000 C   0  0  0  0  0  0  0  0  0  0  0  0
   28.9600   27.5500   33.7100 C   0  0  0  0  0  0  0  0  0  0  0  0
   27.6600   27.0300   33.5900 C   0  0  0  0  0  0  0  0  0  0  0  0
   27.1600   26.7400   32.3400 N   0  0  0  0  0  0  0  0  0  0  0  0
   23.3964   26.1590   35.9932 C   0  0  0  0  0  0  0  0  0  0  0  0
   22.4208   26.6935   36.6954 N   0  0  0  0  0  0  0  0  0  0  0  0
   21.4191   25.6752   36.9923 C   0  0  0  0  0  0  0  0  0  0  0  0
   21.8429   24.5457   36.4702 C   0  0  0  0  0  0  0  0  0  0  0  0
   21.9620   23.1775   36.0658 C   0  0  1  0  0  0  0  0  0  0  0  0
   20.9056   22.7474   35.0863 C   0  0  0  0  0  0  0  0  0  0  0  0
   20.6337   21.5212   34.9695 O   0  0  0  0  0  0  0  0  0  0  0  0
   20.2753   23.6975   34.2692 O   0  0  0  0  0  0  0  0  0  0  0  0
   19.2892   23.3506   33.3061 C   0  0  0  0  0  0  0  0  0  0  0  0
   23.2355   23.4506   35.4143 C   0  0  0  0  0  0  0  0  0  0  0  0
   23.1023   24.7580   35.8095 C   0  0  0  0  0  0  0  0  0  0  0  0
   24.4251   22.5053   34.5418 Cl  0  0  0  0  0  0  0  0  0  0  0  0
  1  2  1  0
  2  3  2  0
  2  4  1  0
  4  5  2  0
  5  6  1  0
  6  7  2  0
  7  8  1  0
  8  9  2  0
  9 10  1  0
 10 11  2  0
 11 12  1  0
 12 13  2  0
 13 14  1  0
  1 15  1  0
 15 16  2  0
 16 17  1  0
 17 18  2  0
 18 19  1  0
 19 20  1  6
 20 21  2  0
 20 22  1  0
 22 23  1  0
 19 24  1  0
 24 25  2  0
 24 26  1  0
 13  4  1  0
 25 15  1  0
 12  7  1  0
 25 18  1  0
M  END
>  <AAScore>  (1) 
2341.2725719357863

>  <RootName>  (1) 
./4ZLY/04_DeltaGEst/trajectory_05/rank_00/lead_0425

$$$$
