confid_3
     RDKit          3D

 28 31  0  0  0  0  0  0  0  0999 V2000
   24.5500   26.3900   36.2500 N   0  0  0  0  0  0  0  0  0  0  0  0
   25.6000   26.1300   35.4000 C   0  0  0  0  0  0  0  0  0  0  0  0
   25.4300   25.4300   34.4200 O   0  0  0  0  0  0  0  0  0  0  0  0
   26.9800   26.6300   35.7100 C   0  0  0  0  0  0  0  0  0  0  0  0
   27.3200   26.8200   36.9800 N   0  0  0  0  0  0  0  0  0  0  0  0
   28.4700   27.4000   37.3100 N   0  0  0  0  0  0  0  0  0  0  0  0
   29.4000   27.6300   36.3700 C   0  0  0  0  0  0  0  0  0  0  0  0
   30.6600   28.0500   36.8000 C   0  0  0  0  0  0  0  0  0  0  0  0
   31.5700   28.3600   35.7800 C   0  0  0  0  0  0  0  0  0  0  0  0
   31.3700   28.1000   34.4300 C   0  0  0  0  0  0  0  0  0  0  0  0
   30.1200   27.5900   34.0500 C   0  0  0  0  0  0  0  0  0  0  0  0
   29.1500   27.3400   35.0300 C   0  0  0  0  0  0  0  0  0  0  0  0
   27.8800   26.8900   34.6600 C   0  0  0  0  0  0  0  0  0  0  0  0
   27.4800   26.6100   33.3700 N   0  0  0  0  0  0  0  0  0  0  0  0
   23.1602   26.2873   35.8769 C   0  0  0  0  0  0  0  0  0  0  0  0
   22.8549   26.3093   34.6032 N   0  0  0  0  0  0  0  0  0  0  0  0
   21.6114   26.3491   33.8799 C   0  0  0  0  0  0  0  0  0  0  0  0
   20.4902   26.9146   34.3250 C   0  0  0  0  0  0  0  0  0  0  0  0
   19.1285   27.2237   33.7740 C   0  0  0  0  0  0  0  0  0  0  0  0
   18.6479   27.8112   34.9391 O   0  0  0  0  0  0  0  0  0  0  0  0
   19.8767   27.5536   35.5479 C   0  0  2  0  0  0  0  0  0  0  0  0
   20.5811   28.8801   35.9288 C   0  0  0  0  0  0  0  0  0  0  0  0
   19.8206   29.6507   36.9697 C   0  0  0  0  0  0  0  0  0  0  0  0
   18.7224   30.1198   36.7164 O   0  0  0  0  0  0  0  0  0  0  0  0
   19.7013   26.5426   36.7168 C   0  0  0  0  0  0  0  0  0  0  0  0
   20.8351   25.5131   36.8278 C   0  0  0  0  0  0  0  0  0  0  0  0
   22.1635   26.1857   36.9773 C   0  0  0  0  0  0  0  0  0  0  0  0
   22.4579   26.6565   38.1099 O   0  0  0  0  0  0  0  0  0  0  0  0
  1  2  1  0
  2  3  2  0
  2  4  1  0
  4  5  2  0
  5  6  1  0
  6  7  2  0
  7  8  1  0
  8  9  2  0
  9 10  1  0
 10 11  2  0
 11 12  1  0
 12 13  2  0
 13 14  1  0
  1 15  1  0
 15 16  2  0
 16 17  1  0
 17 18  2  0
 18 19  1  0
 19 20  1  0
 20 21  1  0
 21 22  1  1
 22 23  1  0
 23 24  2  0
 21 25  1  0
 25 26  1  0
 26 27  1  0
 27 28  2  0
 13  4  1  0
 27 15  1  0
 12  7  1  0
 21 18  1  0
M  END
>  <AAScore>  (1) 
458.02110361288806

>  <RootName>  (1) 
./4ZLY/04_DeltaGEst/trajectory_01/rank_00/lead_0215

$$$$
