confid_0
     RDKit          3D

 30 34  0  0  0  0  0  0  0  0999 V2000
   24.5700   26.8800   35.5900 N   0  0  0  0  0  0  0  0  0  0  0  0
   25.5000   26.4000   34.6900 C   0  0  0  0  0  0  0  0  0  0  0  0
   25.1700   25.5200   33.9100 O   0  0  0  0  0  0  0  0  0  0  0  0
   26.8400   27.0200   34.7400 C   0  0  0  0  0  0  0  0  0  0  0  0
   27.3800   27.2800   35.9400 N   0  0  0  0  0  0  0  0  0  0  0  0
   28.6200   27.7400   36.0300 N   0  0  0  0  0  0  0  0  0  0  0  0
   29.3800   28.0000   34.9600 C   0  0  0  0  0  0  0  0  0  0  0  0
   30.6700   28.5000   35.1300 C   0  0  0  0  0  0  0  0  0  0  0  0
   31.5400   28.6100   34.0300 C   0  0  0  0  0  0  0  0  0  0  0  0
   31.0900   28.2200   32.7700 C   0  0  0  0  0  0  0  0  0  0  0  0
   29.8000   27.7000   32.6000 C   0  0  0  0  0  0  0  0  0  0  0  0
   28.9600   27.5500   33.7100 C   0  0  0  0  0  0  0  0  0  0  0  0
   27.6600   27.0300   33.5900 C   0  0  0  0  0  0  0  0  0  0  0  0
   27.1600   26.7400   32.3400 N   0  0  0  0  0  0  0  0  0  0  0  0
   23.1576   26.9725   35.3347 C   0  0  0  0  0  0  0  0  0  0  0  0
   22.3632   27.1373   36.3476 N   0  0  0  0  0  0  0  0  0  0  0  0
   20.9474   27.2324   36.2443 C   0  0  0  0  0  0  0  0  0  0  0  0
   20.3304   27.2063   35.0626 C   0  0  0  0  0  0  0  0  0  0  0  0
   21.1053   27.2740   33.7754 C   0  0  2  0  0  0  0  0  0  0  0  0
   20.4209   26.3700   32.7234 C   0  0  0  0  0  0  0  0  0  0  0  0
   18.9645   26.5913   32.6557 N   0  0  0  0  0  0  0  0  0  0  0  0
   18.2724   25.9842   31.5154 C   0  0  0  0  0  0  0  0  0  0  0  0
   16.7955   26.3963   31.4247 C   0  0  0  0  0  0  0  0  0  0  0  0
   16.0949   26.3252   32.7231 N   0  0  0  0  0  0  0  0  0  0  0  0
   15.9525   24.9351   33.1952 C   0  0  0  0  0  0  0  0  0  0  0  0
   16.7186   27.1856   33.7540 C   0  0  2  0  0  0  0  0  0  0  0  0
   16.3917   28.6638   33.4986 C   0  0  0  0  0  0  0  0  0  0  0  0
   18.2201   26.9863   33.8333 C   0  0  0  0  0  0  0  0  0  0  0  0
   18.8603   27.2590   34.9857 C   0  0  0  0  0  0  0  0  0  0  0  0
   22.6164   26.9118   33.9151 C   0  0  0  0  0  0  0  0  0  0  0  0
  1  2  1  0
  2  3  2  0
  2  4  1  0
  4  5  2  0
  5  6  1  0
  6  7  2  0
  7  8  1  0
  8  9  2  0
  9 10  1  0
 10 11  2  0
 11 12  1  0
 12 13  2  0
 13 14  1  0
  1 15  1  0
 15 16  2  0
 16 17  1  0
 17 18  2  0
 18 19  1  0
 19 20  1  6
 20 21  1  0
 21 22  1  0
 22 23  1  0
 23 24  1  0
 24 25  1  0
 24 26  1  0
 26 27  1  6
 26 28  1  0
 28 29  2  0
 19 30  1  0
 13  4  1  0
 30 15  1  0
 12  7  1  0
 29 18  1  0
 28 21  1  0
M  END
>  <AAScore>  (1) 
491.3149210543826

>  <RootName>  (1) 
./4ZLY/04_DeltaGEst/trajectory_05/rank_00/lead_0130

$$$$
