confid_8
     RDKit          3D

 28 31  0  0  0  0  0  0  0  0999 V2000
   24.2000   26.2400   35.6900 N   0  0  0  0  0  0  0  0  0  0  0  0
   24.8500   26.2800   34.4800 C   0  0  0  0  0  0  0  0  0  0  0  0
   24.3100   25.7400   33.5400 O   0  0  0  0  0  0  0  0  0  0  0  0
   26.1800   26.9700   34.4700 C   0  0  0  0  0  0  0  0  0  0  0  0
   26.6500   27.6000   35.5500 N   0  0  0  0  0  0  0  0  0  0  0  0
   27.7900   28.2700   35.6200 N   0  0  0  0  0  0  0  0  0  0  0  0
   28.5400   28.3000   34.5100 C   0  0  0  0  0  0  0  0  0  0  0  0
   29.7700   28.9400   34.5600 C   0  0  0  0  0  0  0  0  0  0  0  0
   30.7000   28.8900   33.5000 C   0  0  0  0  0  0  0  0  0  0  0  0
   30.3700   28.1400   32.3700 C   0  0  0  0  0  0  0  0  0  0  0  0
   29.1200   27.5200   32.2800 C   0  0  0  0  0  0  0  0  0  0  0  0
   28.2100   27.6100   33.3300 C   0  0  0  0  0  0  0  0  0  0  0  0
   26.9700   26.9700   33.3100 C   0  0  0  0  0  0  0  0  0  0  0  0
   26.5300   26.2400   32.2200 N   0  0  0  0  0  0  0  0  0  0  0  0
   30.1422   29.6737   35.7391 N   0  0  0  0  0  0  0  0  0  0  0  0
   30.7723   28.9393   36.8413 C   0  0  0  0  0  0  0  0  0  0  0  0
   31.7445   29.8448   37.5917 C   0  0  0  0  0  0  0  0  0  0  0  0
   31.0564   31.0698   38.0164 N   0  0  0  0  0  0  0  0  0  0  0  0
   31.1809   31.5432   39.4000 C   0  0  0  0  0  0  0  0  0  0  0  0
   30.2240   31.7594   37.0558 C   0  0  0  0  0  0  0  0  0  0  0  0
   29.8573   33.1053   37.2369 C   0  0  0  0  0  0  0  0  0  0  0  0
   29.0612   33.7672   36.2915 C   0  0  0  0  0  0  0  0  0  0  0  0
   28.7059   35.2151   36.4933 C   0  0  0  0  0  0  0  0  0  0  0  0
   28.6381   33.0902   35.1350 C   0  0  0  0  0  0  0  0  0  0  0  0
   28.9986   31.7423   34.9533 C   0  0  0  0  0  0  0  0  0  0  0  0
   29.7819   31.0671   35.9088 C   0  0  0  0  0  0  0  0  0  0  0  0
   27.8635   33.7843   34.1893 O   0  0  0  0  0  0  0  0  0  0  0  0
   27.3722   33.2234   32.9758 C   0  0  0  0  0  0  0  0  0  0  0  0
  1  2  1  0
  2  3  2  0
  2  4  1  0
  4  5  2  0
  5  6  1  0
  6  7  2  0
  7  8  1  0
  8  9  2  0
  9 10  1  0
 10 11  2  0
 11 12  1  0
 12 13  2  0
 13 14  1  0
  8 15  1  0
 15 16  1  0
 16 17  1  0
 17 18  1  0
 18 19  1  0
 18 20  1  0
 20 21  2  0
 21 22  1  0
 22 23  1  0
 22 24  2  0
 24 25  1  0
 25 26  2  0
 24 27  1  0
 27 28  1  0
 13  4  1  0
 26 15  1  0
 12  7  1  0
 26 20  1  0
M  END
>  <AAScore>  (1) 
857.5761209398593

>  <RootName>  (1) 
./4ZLY/04_DeltaGEst/trajectory_04/rank_01/lead_0141

$$$$
