confid_19
     RDKit          3D

 26 28  0  0  0  0  0  0  0  0999 V2000
   24.5500   26.3900   36.2500 N   0  0  0  0  0  0  0  0  0  0  0  0
   25.6000   26.1300   35.4000 C   0  0  0  0  0  0  0  0  0  0  0  0
   25.4300   25.4300   34.4200 O   0  0  0  0  0  0  0  0  0  0  0  0
   26.9800   26.6300   35.7100 C   0  0  0  0  0  0  0  0  0  0  0  0
   27.3200   26.8200   36.9800 N   0  0  0  0  0  0  0  0  0  0  0  0
   28.4700   27.4000   37.3100 N   0  0  0  0  0  0  0  0  0  0  0  0
   29.4000   27.6300   36.3700 C   0  0  0  0  0  0  0  0  0  0  0  0
   30.6600   28.0500   36.8000 C   0  0  0  0  0  0  0  0  0  0  0  0
   31.5700   28.3600   35.7800 C   0  0  0  0  0  0  0  0  0  0  0  0
   31.3700   28.1000   34.4300 C   0  0  0  0  0  0  0  0  0  0  0  0
   30.1200   27.5900   34.0500 C   0  0  0  0  0  0  0  0  0  0  0  0
   29.1500   27.3400   35.0300 C   0  0  0  0  0  0  0  0  0  0  0  0
   27.8800   26.8900   34.6600 C   0  0  0  0  0  0  0  0  0  0  0  0
   27.4800   26.6100   33.3700 N   0  0  0  0  0  0  0  0  0  0  0  0
   23.2056   25.8282   36.0506 C   0  0  0  0  0  0  0  0  0  0  0  0
   22.1628   26.6086   36.8850 C   0  0  0  0  0  0  0  0  0  0  0  0
   22.0330   26.0588   38.3102 C   0  0  0  0  0  0  0  0  0  0  0  0
   21.7296   24.6177   38.3006 N   0  0  0  0  0  0  0  0  0  0  0  0
   21.1323   23.9861   39.4530 C   0  0  0  0  0  0  0  0  0  0  0  0
   20.5019   22.9019   39.3145 O   0  0  0  0  0  0  0  0  0  0  0  0
   21.1926   24.6190   40.8206 C   0  0  0  0  0  0  0  0  0  0  0  0
   21.2903   23.5879   41.8749 N   0  0  0  0  0  0  0  0  0  0  0  0
   20.9538   24.1711   43.1833 C   0  0  0  0  0  0  0  0  0  0  0  0
   22.6495   23.0200   41.9243 C   0  0  0  0  0  0  0  0  0  0  0  0
   21.9402   23.8394   37.0705 C   0  0  0  0  0  0  0  0  0  0  0  0
   23.2157   24.3096   36.3652 C   0  0  0  0  0  0  0  0  0  0  0  0
  1  2  1  0
  2  3  2  0
  2  4  1  0
  4  5  2  0
  5  6  1  0
  6  7  2  0
  7  8  1  0
  8  9  2  0
  9 10  1  0
 10 11  2  0
 11 12  1  0
 12 13  2  0
 13 14  1  0
  1 15  1  0
 15 16  1  0
 16 17  1  0
 17 18  1  0
 18 19  1  0
 19 20  2  0
 19 21  1  0
 21 22  1  0
 22 23  1  0
 22 24  1  0
 18 25  1  0
 25 26  1  0
 13  4  1  0
 26 15  1  0
 12  7  1  0
M  END
>  <AAScore>  (1) 
409.7111587267401

>  <RootName>  (1) 
./4ZLY/04_DeltaGEst/trajectory_01/rank_00/lead_0278

$$$$
