confid_7
     RDKit          3D

 26 28  0  0  0  0  0  0  0  0999 V2000
   24.5700   26.8800   35.5900 N   0  0  0  0  0  0  0  0  0  0  0  0
   25.5000   26.4000   34.6900 C   0  0  0  0  0  0  0  0  0  0  0  0
   25.1700   25.5200   33.9100 O   0  0  0  0  0  0  0  0  0  0  0  0
   26.8400   27.0200   34.7400 C   0  0  0  0  0  0  0  0  0  0  0  0
   27.3800   27.2800   35.9400 N   0  0  0  0  0  0  0  0  0  0  0  0
   28.6200   27.7400   36.0300 N   0  0  0  0  0  0  0  0  0  0  0  0
   29.3800   28.0000   34.9600 C   0  0  0  0  0  0  0  0  0  0  0  0
   30.6700   28.5000   35.1300 C   0  0  0  0  0  0  0  0  0  0  0  0
   31.5400   28.6100   34.0300 C   0  0  0  0  0  0  0  0  0  0  0  0
   31.0900   28.2200   32.7700 C   0  0  0  0  0  0  0  0  0  0  0  0
   29.8000   27.7000   32.6000 C   0  0  0  0  0  0  0  0  0  0  0  0
   28.9600   27.5500   33.7100 C   0  0  0  0  0  0  0  0  0  0  0  0
   27.6600   27.0300   33.5900 C   0  0  0  0  0  0  0  0  0  0  0  0
   27.1600   26.7400   32.3400 N   0  0  0  0  0  0  0  0  0  0  0  0
   33.1621   29.2634   34.2255 S   0  0  0  0  0  6  0  0  0  0  0  0
   34.1340   28.4237   33.4455 O   0  0  0  0  0  0  0  0  0  0  0  0
   33.5559   29.2331   35.6764 O   0  0  0  0  0  0  0  0  0  0  0  0
   33.1867   30.9415   33.6148 C   0  0  0  0  0  0  0  0  0  0  0  0
   34.4594   31.6435   34.0289 C   0  0  0  0  0  0  0  0  0  0  0  0
   34.5433   32.4555   35.1955 C   0  0  0  0  0  0  0  0  0  0  0  0
   33.3314   32.6762   36.0736 C   0  0  0  0  0  0  0  0  0  0  0  0
   35.7653   33.1120   35.4863 C   0  0  0  0  0  0  0  0  0  0  0  0
   35.9437   34.2181   36.8479 Cl  0  0  0  0  0  0  0  0  0  0  0  0
   36.8836   32.9102   34.6712 C   0  0  0  0  0  0  0  0  0  0  0  0
   36.8064   32.0758   33.5588 C   0  0  0  0  0  0  0  0  0  0  0  0
   35.6045   31.4499   33.2371 C   0  0  0  0  0  0  0  0  0  0  0  0
  1  2  1  0
  2  3  2  0
  2  4  1  0
  4  5  2  0
  5  6  1  0
  6  7  2  0
  7  8  1  0
  8  9  2  0
  9 10  1  0
 10 11  2  0
 11 12  1  0
 12 13  2  0
 13 14  1  0
  9 15  1  0
 15 16  2  0
 15 17  2  0
 15 18  1  0
 18 19  1  0
 19 20  2  0
 20 21  1  0
 20 22  1  0
 22 23  1  0
 22 24  2  0
 24 25  1  0
 25 26  2  0
 13  4  1  0
 26 19  1  0
 12  7  1  0
M  END
>  <AAScore>  (1) 
-5.833429547795474

>  <RootName>  (1) 
./4ZLY/04_DeltaGEst/trajectory_05/rank_01/lead_0399

$$$$
