confid_11
     RDKit          3D

 27 30  0  0  0  0  0  0  0  0999 V2000
   24.2000   26.2400   35.6900 N   0  0  0  0  0  0  0  0  0  0  0  0
   24.8500   26.2800   34.4800 C   0  0  0  0  0  0  0  0  0  0  0  0
   24.3100   25.7400   33.5400 O   0  0  0  0  0  0  0  0  0  0  0  0
   26.1800   26.9700   34.4700 C   0  0  0  0  0  0  0  0  0  0  0  0
   26.6500   27.6000   35.5500 N   0  0  0  0  0  0  0  0  0  0  0  0
   27.7900   28.2700   35.6200 N   0  0  0  0  0  0  0  0  0  0  0  0
   28.5400   28.3000   34.5100 C   0  0  0  0  0  0  0  0  0  0  0  0
   29.7700   28.9400   34.5600 C   0  0  0  0  0  0  0  0  0  0  0  0
   30.7000   28.8900   33.5000 C   0  0  0  0  0  0  0  0  0  0  0  0
   30.3700   28.1400   32.3700 C   0  0  0  0  0  0  0  0  0  0  0  0
   29.1200   27.5200   32.2800 C   0  0  0  0  0  0  0  0  0  0  0  0
   28.2100   27.6100   33.3300 C   0  0  0  0  0  0  0  0  0  0  0  0
   26.9700   26.9700   33.3100 C   0  0  0  0  0  0  0  0  0  0  0  0
   26.5300   26.2400   32.2200 N   0  0  0  0  0  0  0  0  0  0  0  0
   23.2063   25.2651   36.0529 C   0  0  0  0  0  0  0  0  0  0  0  0
   22.9711   24.1778   35.2726 N   0  0  0  0  0  0  0  0  0  0  0  0
   22.0450   23.2497   35.6194 C   0  0  0  0  0  0  0  0  0  0  0  0
   21.3149   23.3839   36.8089 C   0  0  0  0  0  0  0  0  0  0  0  0
   20.2893   22.3282   37.1682 C   0  0  0  0  0  0  0  0  0  0  0  0
   18.8551   22.7270   36.7878 C   0  0  0  0  0  0  0  0  0  0  0  0
   18.2905   23.6994   37.7531 N   0  0  0  0  0  0  0  0  0  0  0  0
   16.8291   23.5462   37.8485 C   0  0  0  0  0  0  0  0  0  0  0  0
   18.6551   25.1000   37.4253 C   0  0  0  0  0  0  0  0  0  0  0  0
   19.5404   25.6914   38.5299 C   0  0  0  0  0  0  0  0  0  0  0  0
   20.7774   24.8394   38.8510 C   0  0  0  0  0  0  0  0  0  0  0  0
   21.5730   24.5212   37.6109 C   0  0  0  0  0  0  0  0  0  0  0  0
   22.5049   25.4248   37.2046 N   0  0  0  0  0  0  0  0  0  0  0  0
  1  2  1  0
  2  3  2  0
  2  4  1  0
  4  5  2  0
  5  6  1  0
  6  7  2  0
  7  8  1  0
  8  9  2  0
  9 10  1  0
 10 11  2  0
 11 12  1  0
 12 13  2  0
 13 14  1  0
  1 15  1  0
 15 16  2  0
 16 17  1  0
 17 18  2  0
 18 19  1  0
 19 20  1  0
 20 21  1  0
 21 22  1  0
 21 23  1  0
 23 24  1  0
 24 25  1  0
 25 26  1  0
 26 27  2  0
 13  4  1  0
 27 15  1  0
 12  7  1  0
 26 18  1  0
M  END
>  <AAScore>  (1) 
1092.5540291199304

>  <RootName>  (1) 
./4ZLY/04_DeltaGEst/trajectory_04/rank_00/lead_0325

$$$$
