confid_13
     RDKit          3D

 28 31  0  0  0  0  0  0  0  0999 V2000
   24.6900   26.1200   35.5300 N   0  0  0  0  0  0  0  0  0  0  0  0
   25.6600   25.6700   34.6600 C   0  0  0  0  0  0  0  0  0  0  0  0
   25.2400   25.0100   33.7200 O   0  0  0  0  0  0  0  0  0  0  0  0
   27.0300   26.2200   34.8800 C   0  0  0  0  0  0  0  0  0  0  0  0
   27.3500   26.7300   36.0700 N   0  0  0  0  0  0  0  0  0  0  0  0
   28.5700   27.1800   36.3300 N   0  0  0  0  0  0  0  0  0  0  0  0
   29.5300   27.1100   35.3900 C   0  0  0  0  0  0  0  0  0  0  0  0
   30.8300   27.5700   35.6500 C   0  0  0  0  0  0  0  0  0  0  0  0
   31.8500   27.5400   34.6900 C   0  0  0  0  0  0  0  0  0  0  0  0
   31.5100   27.1200   33.4000 C   0  0  0  0  0  0  0  0  0  0  0  0
   30.2200   26.6300   33.1100 C   0  0  0  0  0  0  0  0  0  0  0  0
   29.2400   26.6600   34.1000 C   0  0  0  0  0  0  0  0  0  0  0  0
   27.9300   26.2600   33.8100 C   0  0  0  0  0  0  0  0  0  0  0  0
   27.5200   25.7100   32.6100 N   0  0  0  0  0  0  0  0  0  0  0  0
   31.1347   28.0879   36.9576 N   0  0  0  0  0  0  0  0  0  0  0  0
   30.6992   29.4351   37.3126 C   0  0  0  0  0  0  0  0  0  0  0  0
   31.8308   30.4133   36.9987 C   0  0  0  0  0  0  0  0  0  0  0  0
   33.1332   29.9423   37.5067 N   0  0  0  0  0  0  0  0  0  0  0  0
   33.3707   28.5390   37.7790 C   0  0  0  0  0  0  0  0  0  0  0  0
   34.5170   28.1388   38.1186 O   0  0  0  0  0  0  0  0  0  0  0  0
   32.2491   27.5428   37.7302 C   0  0  0  0  0  0  0  0  0  0  0  0
   34.2634   30.8794   37.4507 C   0  0  0  0  0  0  0  0  0  0  0  0
   34.7920   30.9756   36.0441 C   0  0  0  0  0  0  0  0  0  0  0  0
   35.5616   29.9588   35.4549 C   0  0  0  0  0  0  0  0  0  0  0  0
   35.9089   30.2114   34.1349 C   0  0  0  0  0  0  0  0  0  0  0  0
   35.2579   31.6957   33.6925 S   0  0  0  0  0  0  0  0  0  0  0  0
   34.5278   32.0321   35.1690 C   0  0  0  0  0  0  0  0  0  0  0  0
   33.7485   33.2731   35.4660 C   0  0  0  0  0  0  0  0  0  0  0  0
  1  2  1  0
  2  3  2  0
  2  4  1  0
  4  5  2  0
  5  6  1  0
  6  7  2  0
  7  8  1  0
  8  9  2  0
  9 10  1  0
 10 11  2  0
 11 12  1  0
 12 13  2  0
 13 14  1  0
  8 15  1  0
 15 16  1  0
 16 17  1  0
 17 18  1  0
 18 19  1  0
 19 20  2  0
 19 21  1  0
 18 22  1  0
 22 23  1  0
 23 24  1  0
 24 25  2  0
 25 26  1  0
 26 27  1  0
 27 28  1  0
 13  4  1  0
 21 15  1  0
 27 23  2  0
 12  7  1  0
M  END
>  <AAScore>  (1) 
134.51549350579995

>  <RootName>  (1) 
./4ZLY/04_DeltaGEst/trajectory_02/rank_01/lead_0086

$$$$
