confid_14
     RDKit          3D

 29 32  0  0  0  0  0  0  0  0999 V2000
   24.6900   26.1200   35.5300 N   0  0  0  0  0  0  0  0  0  0  0  0
   25.6600   25.6700   34.6600 C   0  0  0  0  0  0  0  0  0  0  0  0
   25.2400   25.0100   33.7200 O   0  0  0  0  0  0  0  0  0  0  0  0
   27.0300   26.2200   34.8800 C   0  0  0  0  0  0  0  0  0  0  0  0
   27.3500   26.7300   36.0700 N   0  0  0  0  0  0  0  0  0  0  0  0
   28.5700   27.1800   36.3300 N   0  0  0  0  0  0  0  0  0  0  0  0
   29.5300   27.1100   35.3900 C   0  0  0  0  0  0  0  0  0  0  0  0
   30.8300   27.5700   35.6500 C   0  0  0  0  0  0  0  0  0  0  0  0
   31.8500   27.5400   34.6900 C   0  0  0  0  0  0  0  0  0  0  0  0
   31.5100   27.1200   33.4000 C   0  0  0  0  0  0  0  0  0  0  0  0
   30.2200   26.6300   33.1100 C   0  0  0  0  0  0  0  0  0  0  0  0
   29.2400   26.6600   34.1000 C   0  0  0  0  0  0  0  0  0  0  0  0
   27.9300   26.2600   33.8100 C   0  0  0  0  0  0  0  0  0  0  0  0
   27.5200   25.7100   32.6100 N   0  0  0  0  0  0  0  0  0  0  0  0
   31.1457   28.0666   36.9595 N   0  0  0  0  0  0  0  0  0  0  0  0
   30.6497   29.3801   37.3836 C   0  0  0  0  0  0  0  0  0  0  0  0
   30.0884   29.2954   38.8073 C   0  0  0  0  0  0  0  0  0  0  0  0
   30.9559   28.5002   39.6888 N   0  0  0  0  0  0  0  0  0  0  0  0
   30.6360   28.4201   41.0889 C   0  0  0  0  0  0  0  0  0  0  0  0
   30.2516   29.4578   41.6953 O   0  0  0  0  0  0  0  0  0  0  0  0
   30.7231   27.1386   41.8265 C   0  0  0  0  0  0  0  0  0  0  0  0
   30.5444   25.9143   41.1578 C   0  0  0  0  0  0  0  0  0  0  0  0
   30.6103   24.7082   41.8613 C   0  0  0  0  0  0  0  0  0  0  0  0
   30.8472   24.7113   43.2377 C   0  0  0  0  0  0  0  0  0  0  0  0
   31.0104   25.9231   43.9166 C   0  0  0  0  0  0  0  0  0  0  0  0
   31.2957   25.9259   45.6478 Cl  0  0  0  0  0  0  0  0  0  0  0  0
   30.9440   27.1330   43.2156 C   0  0  0  0  0  0  0  0  0  0  0  0
   32.2307   27.9672   39.1873 C   0  0  0  0  0  0  0  0  0  0  0  0
   32.0204   27.2763   37.8353 C   0  0  0  0  0  0  0  0  0  0  0  0
  1  2  1  0
  2  3  2  0
  2  4  1  0
  4  5  2  0
  5  6  1  0
  6  7  2  0
  7  8  1  0
  8  9  2  0
  9 10  1  0
 10 11  2  0
 11 12  1  0
 12 13  2  0
 13 14  1  0
  8 15  1  0
 15 16  1  0
 16 17  1  0
 17 18  1  0
 18 19  1  0
 19 20  2  0
 19 21  1  0
 21 22  2  0
 22 23  1  0
 23 24  2  0
 24 25  1  0
 25 26  1  0
 25 27  2  0
 18 28  1  0
 28 29  1  0
 13  4  1  0
 29 15  1  0
 12  7  1  0
 27 21  1  0
M  END
>  <AAScore>  (1) 
46.7995537953829

>  <RootName>  (1) 
./4ZLY/04_DeltaGEst/trajectory_02/rank_01/lead_0442

$$$$
