confid_9
     RDKit          3D

 27 30  0  0  0  0  0  0  0  0999 V2000
   24.4800   26.1000   36.1300 N   0  0  0  0  0  0  0  0  0  0  0  0
   25.2500   26.2500   34.9900 C   0  0  0  0  0  0  0  0  0  0  0  0
   24.7400   25.7600   33.9900 O   0  0  0  0  0  0  0  0  0  0  0  0
   26.5900   26.8900   34.9600 C   0  0  0  0  0  0  0  0  0  0  0  0
   27.0600   27.2400   36.1600 N   0  0  0  0  0  0  0  0  0  0  0  0
   28.3000   27.7100   36.2400 N   0  0  0  0  0  0  0  0  0  0  0  0
   29.0500   27.9600   35.1500 C   0  0  0  0  0  0  0  0  0  0  0  0
   30.3400   28.4900   35.2600 C   0  0  0  0  0  0  0  0  0  0  0  0
   31.1100   28.8200   34.1400 C   0  0  0  0  0  0  0  0  0  0  0  0
   30.5200   28.6700   32.8800 C   0  0  0  0  0  0  0  0  0  0  0  0
   29.2900   28.0200   32.7700 C   0  0  0  0  0  0  0  0  0  0  0  0
   28.5200   27.7100   33.8900 C   0  0  0  0  0  0  0  0  0  0  0  0
   27.2700   27.0800   33.7600 C   0  0  0  0  0  0  0  0  0  0  0  0
   26.7500   26.8800   32.4900 N   0  0  0  0  0  0  0  0  0  0  0  0
   23.4825   25.0726   36.3146 C   0  0  0  0  0  0  0  0  0  0  0  0
   23.5849   23.9098   35.6177 N   0  0  0  0  0  0  0  0  0  0  0  0
   22.7075   22.8887   35.7673 C   0  0  0  0  0  0  0  0  0  0  0  0
   21.6467   22.9877   36.6766 C   0  0  0  0  0  0  0  0  0  0  0  0
   20.6563   21.8480   36.7631 C   0  0  0  0  0  0  0  0  0  0  0  0
   19.2888   22.3793   36.9475 N   0  0  0  0  0  0  0  0  0  0  0  0
   18.2982   21.5461   36.2461 C   0  0  0  0  0  0  0  0  0  0  0  0
   18.9273   22.4842   38.3754 C   0  0  0  0  0  0  0  0  0  0  0  0
   19.9911   23.2214   39.1968 C   0  0  0  0  0  0  0  0  0  0  0  0
   20.5600   24.3029   38.4656 O   0  0  0  0  0  0  0  0  0  0  0  0
   21.5382   24.1608   37.4657 C   0  0  0  0  0  0  0  0  0  0  0  0
   22.4321   25.2322   37.2466 C   0  0  0  0  0  0  0  0  0  0  0  0
   22.2969   26.5102   38.0387 C   0  0  0  0  0  0  0  0  0  0  0  0
  1  2  1  0
  2  3  2  0
  2  4  1  0
  4  5  2  0
  5  6  1  0
  6  7  2  0
  7  8  1  0
  8  9  2  0
  9 10  1  0
 10 11  2  0
 11 12  1  0
 12 13  2  0
 13 14  1  0
  1 15  1  0
 15 16  2  0
 16 17  1  0
 17 18  2  0
 18 19  1  0
 19 20  1  0
 20 21  1  0
 20 22  1  0
 22 23  1  0
 23 24  1  0
 24 25  1  0
 25 26  2  0
 26 27  1  0
 13  4  1  0
 26 15  1  0
 12  7  1  0
 25 18  1  0
M  END
>  <AAScore>  (1) 
1174.9156454066442

>  <RootName>  (1) 
./4ZLY/04_DeltaGEst/trajectory_00/rank_00/lead_0227

$$$$
