confid_4
     RDKit          3D

 29 32  0  0  0  0  0  0  0  0999 V2000
   24.5500   26.3900   36.2500 N   0  0  0  0  0  0  0  0  0  0  0  0
   25.6000   26.1300   35.4000 C   0  0  0  0  0  0  0  0  0  0  0  0
   25.4300   25.4300   34.4200 O   0  0  0  0  0  0  0  0  0  0  0  0
   26.9800   26.6300   35.7100 C   0  0  0  0  0  0  0  0  0  0  0  0
   27.3200   26.8200   36.9800 N   0  0  0  0  0  0  0  0  0  0  0  0
   28.4700   27.4000   37.3100 N   0  0  0  0  0  0  0  0  0  0  0  0
   29.4000   27.6300   36.3700 C   0  0  0  0  0  0  0  0  0  0  0  0
   30.6600   28.0500   36.8000 C   0  0  0  0  0  0  0  0  0  0  0  0
   31.5700   28.3600   35.7800 C   0  0  0  0  0  0  0  0  0  0  0  0
   31.3700   28.1000   34.4300 C   0  0  0  0  0  0  0  0  0  0  0  0
   30.1200   27.5900   34.0500 C   0  0  0  0  0  0  0  0  0  0  0  0
   29.1500   27.3400   35.0300 C   0  0  0  0  0  0  0  0  0  0  0  0
   27.8800   26.8900   34.6600 C   0  0  0  0  0  0  0  0  0  0  0  0
   27.4800   26.6100   33.3700 N   0  0  0  0  0  0  0  0  0  0  0  0
   23.2205   25.8490   36.0996 C   0  0  0  0  0  0  0  0  0  0  0  0
   22.8507   25.0861   35.0485 N   0  0  0  0  0  0  0  0  0  0  0  0
   21.5376   24.8646   35.2377 C   0  0  0  0  0  0  0  0  0  0  0  0
   21.1285   25.5049   36.3828 C   0  0  0  0  0  0  0  0  0  0  0  0
   19.7249   25.5085   36.9082 C   0  0  0  0  0  0  0  0  0  0  0  0
   19.4262   26.8074   37.5128 N   0  0  0  0  0  0  0  0  0  0  0  0
   18.8235   27.8435   36.7069 C   0  0  0  0  0  0  0  0  0  0  0  0
   18.8743   27.7675   35.4490 O   0  0  0  0  0  0  0  0  0  0  0  0
   18.1439   29.0275   37.3250 C   0  0  0  0  0  0  0  0  0  0  0  0
   19.7921   27.0350   38.9190 C   0  0  0  0  0  0  0  0  0  0  0  0
   21.2291   26.5762   39.2368 C   0  0  0  0  0  0  0  0  0  0  0  0
   21.2651   25.2068   39.4391 F   0  0  0  0  0  0  0  0  0  0  0  0
   21.6130   27.1811   40.4211 F   0  0  0  0  0  0  0  0  0  0  0  0
   22.2365   26.9767   38.1425 C   0  0  0  0  0  0  0  0  0  0  0  0
   22.1988   26.0997   36.9576 N   0  0  0  0  0  0  0  0  0  0  0  0
  1  2  1  0
  2  3  2  0
  2  4  1  0
  4  5  2  0
  5  6  1  0
  6  7  2  0
  7  8  1  0
  8  9  2  0
  9 10  1  0
 10 11  2  0
 11 12  1  0
 12 13  2  0
 13 14  1  0
  1 15  1  0
 15 16  2  0
 16 17  1  0
 17 18  2  0
 18 19  1  0
 19 20  1  0
 20 21  1  0
 21 22  2  0
 21 23  1  0
 20 24  1  0
 24 25  1  0
 25 26  1  0
 25 27  1  0
 25 28  1  0
 28 29  1  0
 13  4  1  0
 29 15  1  0
 12  7  1  0
 29 18  1  0
M  END
>  <AAScore>  (1) 
595.2478329442016

>  <RootName>  (1) 
./4ZLY/04_DeltaGEst/trajectory_01/rank_00/lead_0415

$$$$
