confid_6
     RDKit          3D

 26 29  0  0  0  0  0  0  0  0999 V2000
   24.6900   26.1200   35.5300 N   0  0  0  0  0  0  0  0  0  0  0  0
   25.6600   25.6700   34.6600 C   0  0  0  0  0  0  0  0  0  0  0  0
   25.2400   25.0100   33.7200 O   0  0  0  0  0  0  0  0  0  0  0  0
   27.0300   26.2200   34.8800 C   0  0  0  0  0  0  0  0  0  0  0  0
   27.3500   26.7300   36.0700 N   0  0  0  0  0  0  0  0  0  0  0  0
   28.5700   27.1800   36.3300 N   0  0  0  0  0  0  0  0  0  0  0  0
   29.5300   27.1100   35.3900 C   0  0  0  0  0  0  0  0  0  0  0  0
   30.8300   27.5700   35.6500 C   0  0  0  0  0  0  0  0  0  0  0  0
   31.8500   27.5400   34.6900 C   0  0  0  0  0  0  0  0  0  0  0  0
   31.5100   27.1200   33.4000 C   0  0  0  0  0  0  0  0  0  0  0  0
   30.2200   26.6300   33.1100 C   0  0  0  0  0  0  0  0  0  0  0  0
   29.2400   26.6600   34.1000 C   0  0  0  0  0  0  0  0  0  0  0  0
   27.9300   26.2600   33.8100 C   0  0  0  0  0  0  0  0  0  0  0  0
   27.5200   25.7100   32.6100 N   0  0  0  0  0  0  0  0  0  0  0  0
   31.1797   28.0775   36.9951 C   0  0  0  0  0  0  0  0  0  0  0  0
   31.6723   29.3492   37.2466 C   0  0  0  0  0  0  0  0  0  0  0  0
   31.8625   29.4110   38.6114 C   0  0  0  0  0  0  0  0  0  0  0  0
   32.4469   30.5288   39.4094 C   0  0  0  0  0  0  0  0  0  0  0  0
   32.1812   30.3495   40.8417 N   0  0  0  0  0  0  0  0  0  0  0  0
   31.8570   29.0697   41.4275 C   0  0  0  0  0  0  0  0  0  0  0  0
   31.7563   28.9637   42.6791 O   0  0  0  0  0  0  0  0  0  0  0  0
   31.6522   27.8389   40.5810 C   0  0  0  0  0  0  0  0  0  0  0  0
   31.5072   28.1933   39.1333 C   0  0  0  0  0  0  0  0  0  0  0  0
   31.1054   27.3639   38.1467 N   0  0  0  0  0  0  0  0  0  0  0  0
   30.6935   25.9687   38.3070 C   0  0  0  0  0  0  0  0  0  0  0  0
   32.4501   31.7193   41.8878 Cl  0  0  0  0  0  0  0  0  0  0  0  0
  1  2  1  0
  2  3  2  0
  2  4  1  0
  4  5  2  0
  5  6  1  0
  6  7  2  0
  7  8  1  0
  8  9  2  0
  9 10  1  0
 10 11  2  0
 11 12  1  0
 12 13  2  0
 13 14  1  0
  8 15  1  0
 15 16  2  0
 16 17  1  0
 17 18  1  0
 18 19  1  0
 19 20  1  0
 20 21  2  0
 20 22  1  0
 22 23  1  0
 23 24  1  0
 24 25  1  0
 19 26  1  0
 13  4  1  0
 24 15  1  0
 12  7  1  0
 23 17  2  0
M  END
>  <AAScore>  (1) 
16.811420370453344

>  <RootName>  (1) 
./4ZLY/04_DeltaGEst/trajectory_02/rank_01/lead_0278

$$$$
