confid_2
     RDKit          3D

 30 33  0  0  0  0  0  0  0  0999 V2000
   24.6900   26.1200   35.5300 N   0  0  0  0  0  0  0  0  0  0  0  0
   25.6600   25.6700   34.6600 C   0  0  0  0  0  0  0  0  0  0  0  0
   25.2400   25.0100   33.7200 O   0  0  0  0  0  0  0  0  0  0  0  0
   27.0300   26.2200   34.8800 C   0  0  0  0  0  0  0  0  0  0  0  0
   27.3500   26.7300   36.0700 N   0  0  0  0  0  0  0  0  0  0  0  0
   28.5700   27.1800   36.3300 N   0  0  0  0  0  0  0  0  0  0  0  0
   29.5300   27.1100   35.3900 C   0  0  0  0  0  0  0  0  0  0  0  0
   30.8300   27.5700   35.6500 C   0  0  0  0  0  0  0  0  0  0  0  0
   31.8500   27.5400   34.6900 C   0  0  0  0  0  0  0  0  0  0  0  0
   31.5100   27.1200   33.4000 C   0  0  0  0  0  0  0  0  0  0  0  0
   30.2200   26.6300   33.1100 C   0  0  0  0  0  0  0  0  0  0  0  0
   29.2400   26.6600   34.1000 C   0  0  0  0  0  0  0  0  0  0  0  0
   27.9300   26.2600   33.8100 C   0  0  0  0  0  0  0  0  0  0  0  0
   27.5200   25.7100   32.6100 N   0  0  0  0  0  0  0  0  0  0  0  0
   31.1407   28.0703   36.9592 N   0  0  0  0  0  0  0  0  0  0  0  0
   30.6623   29.3953   37.3662 C   0  0  0  0  0  0  0  0  0  0  0  0
   30.1855   29.3940   38.8352 C   0  0  0  0  0  0  0  0  0  0  0  0
   30.6138   28.1879   39.5802 N   0  0  0  0  0  0  0  0  0  0  0  0
   30.4336   28.3881   41.0318 C   0  0  0  0  0  0  0  0  0  0  0  0
   30.3296   27.0571   41.7352 C   0  0  0  0  0  0  0  0  0  0  0  0
   29.2163   26.2277   41.5022 C   0  0  0  0  0  0  0  0  0  0  0  0
   29.1134   24.9899   42.1445 C   0  0  0  0  0  0  0  0  0  0  0  0
   30.1164   24.5681   43.0206 C   0  0  0  0  0  0  0  0  0  0  0  0
   30.0133   23.3668   43.6409 F   0  0  0  0  0  0  0  0  0  0  0  0
   31.2278   25.3819   43.2542 C   0  0  0  0  0  0  0  0  0  0  0  0
   31.3403   26.6204   42.6143 C   0  0  0  0  0  0  0  0  0  0  0  0
   32.4338   27.3881   42.8528 F   0  0  0  0  0  0  0  0  0  0  0  0
   28.2310   26.6190   40.6539 F   0  0  0  0  0  0  0  0  0  0  0  0
   32.0103   27.8428   39.2544 C   0  0  0  0  0  0  0  0  0  0  0  0
   32.0711   27.3270   37.8150 C   0  0  0  0  0  0  0  0  0  0  0  0
  1  2  1  0
  2  3  2  0
  2  4  1  0
  4  5  2  0
  5  6  1  0
  6  7  2  0
  7  8  1  0
  8  9  2  0
  9 10  1  0
 10 11  2  0
 11 12  1  0
 12 13  2  0
 13 14  1  0
  8 15  1  0
 15 16  1  0
 16 17  1  0
 17 18  1  0
 18 19  1  0
 19 20  1  0
 20 21  2  0
 21 22  1  0
 22 23  2  0
 23 24  1  0
 23 25  1  0
 25 26  2  0
 26 27  1  0
 21 28  1  0
 18 29  1  0
 29 30  1  0
 13  4  1  0
 30 15  1  0
 12  7  1  0
 26 20  1  0
M  END
>  <AAScore>  (1) 
17.058178221358638

>  <RootName>  (1) 
./4ZLY/04_DeltaGEst/trajectory_02/rank_01/lead_0130

$$$$
