confid_13
     RDKit          3D

 30 32  0  0  0  0  0  0  0  0999 V2000
   24.5700   26.8800   35.5900 N   0  0  0  0  0  0  0  0  0  0  0  0
   25.5000   26.4000   34.6900 C   0  0  0  0  0  0  0  0  0  0  0  0
   25.1700   25.5200   33.9100 O   0  0  0  0  0  0  0  0  0  0  0  0
   26.8400   27.0200   34.7400 C   0  0  0  0  0  0  0  0  0  0  0  0
   27.3800   27.2800   35.9400 N   0  0  0  0  0  0  0  0  0  0  0  0
   28.6200   27.7400   36.0300 N   0  0  0  0  0  0  0  0  0  0  0  0
   29.3800   28.0000   34.9600 C   0  0  0  0  0  0  0  0  0  0  0  0
   30.6700   28.5000   35.1300 C   0  0  0  0  0  0  0  0  0  0  0  0
   31.5400   28.6100   34.0300 C   0  0  0  0  0  0  0  0  0  0  0  0
   31.0900   28.2200   32.7700 C   0  0  0  0  0  0  0  0  0  0  0  0
   29.8000   27.7000   32.6000 C   0  0  0  0  0  0  0  0  0  0  0  0
   28.9600   27.5500   33.7100 C   0  0  0  0  0  0  0  0  0  0  0  0
   27.6600   27.0300   33.5900 C   0  0  0  0  0  0  0  0  0  0  0  0
   27.1600   26.7400   32.3400 N   0  0  0  0  0  0  0  0  0  0  0  0
   33.1688   29.2575   34.2349 S   0  0  0  0  0  6  0  0  0  0  0  0
   34.0933   28.5946   33.2517 O   0  0  0  0  0  0  0  0  0  0  0  0
   33.6601   28.9391   35.6203 O   0  0  0  0  0  0  0  0  0  0  0  0
   33.1977   30.9899   33.9829 N   0  0  0  0  0  0  0  0  0  0  0  0
   32.4777   31.7001   35.0622 C   0  0  0  0  0  0  0  0  0  0  0  0
   33.3824   32.7200   35.8336 C   0  0  1  0  0  0  0  0  0  0  0  0
   34.7997   33.0731   35.1880 C   0  0  0  0  0  0  0  0  0  0  0  0
   35.3780   34.3788   35.7942 C   0  0  0  0  0  0  0  0  0  0  0  0
   35.8080   31.9511   35.5488 C   0  0  0  0  0  0  0  0  0  0  0  0
   34.7632   33.2296   33.6326 C   0  0  0  0  0  0  0  0  0  0  0  0
   33.4756   33.6354   33.2010 O   0  0  0  0  0  0  0  0  0  0  0  0
   32.9073   32.8099   32.1860 C   0  0  0  0  0  0  0  0  0  0  0  0
   33.7521   32.8765   30.8859 C   0  0  0  0  0  0  0  0  0  0  0  0
   31.5399   33.4401   31.8555 C   0  0  0  0  0  0  0  0  0  0  0  0
   32.6702   31.3130   32.6372 C   0  0  0  0  0  0  0  0  0  0  0  0
   32.5280   33.9603   36.1878 C   0  0  0  0  0  0  0  0  0  0  0  0
  1  2  1  0
  2  3  2  0
  2  4  1  0
  4  5  2  0
  5  6  1  0
  6  7  2  0
  7  8  1  0
  8  9  2  0
  9 10  1  0
 10 11  2  0
 11 12  1  0
 12 13  2  0
 13 14  1  0
  9 15  1  0
 15 16  2  0
 15 17  2  0
 15 18  1  0
 18 19  1  0
 19 20  1  0
 20 21  1  0
 21 22  1  0
 21 23  1  0
 21 24  1  0
 24 25  1  0
 25 26  1  0
 26 27  1  0
 26 28  1  0
 26 29  1  0
 20 30  1  6
 13  4  1  0
 29 18  1  0
 12  7  1  0
M  END
>  <AAScore>  (1) 
50.48282063217167

>  <RootName>  (1) 
./4ZLY/04_DeltaGEst/trajectory_05/rank_01/lead_0404

$$$$
