confid_7
     RDKit          3D

 27 31  0  0  0  0  0  0  0  0999 V2000
   24.6900   26.1200   35.5300 N   0  0  0  0  0  0  0  0  0  0  0  0
   25.6600   25.6700   34.6600 C   0  0  0  0  0  0  0  0  0  0  0  0
   25.2400   25.0100   33.7200 O   0  0  0  0  0  0  0  0  0  0  0  0
   27.0300   26.2200   34.8800 C   0  0  0  0  0  0  0  0  0  0  0  0
   27.3500   26.7300   36.0700 N   0  0  0  0  0  0  0  0  0  0  0  0
   28.5700   27.1800   36.3300 N   0  0  0  0  0  0  0  0  0  0  0  0
   29.5300   27.1100   35.3900 C   0  0  0  0  0  0  0  0  0  0  0  0
   30.8300   27.5700   35.6500 C   0  0  0  0  0  0  0  0  0  0  0  0
   31.8500   27.5400   34.6900 C   0  0  0  0  0  0  0  0  0  0  0  0
   31.5100   27.1200   33.4000 C   0  0  0  0  0  0  0  0  0  0  0  0
   30.2200   26.6300   33.1100 C   0  0  0  0  0  0  0  0  0  0  0  0
   29.2400   26.6600   34.1000 C   0  0  0  0  0  0  0  0  0  0  0  0
   27.9300   26.2600   33.8100 C   0  0  0  0  0  0  0  0  0  0  0  0
   27.5200   25.7100   32.6100 N   0  0  0  0  0  0  0  0  0  0  0  0
   31.1483   28.0817   36.9540 N   0  0  0  0  0  0  0  0  0  0  0  0
   31.2841   27.1309   38.0826 C   0  0  0  0  0  0  0  0  0  0  0  0
   30.3476   27.4539   39.2779 C   0  0  0  0  0  0  0  0  0  0  0  0
   30.2839   28.8971   39.5430 N   0  0  0  0  0  0  0  0  0  0  0  0
   31.5723   29.5912   39.6974 C   0  0  0  0  0  0  0  0  0  0  0  0
   32.1626   29.9397   38.2953 C   0  0  0  0  0  0  0  0  0  0  0  0
   29.3540   29.6195   38.7299 C   0  0  0  0  0  0  0  0  0  0  0  0
   28.0701   29.8464   39.1119 N   0  0  0  0  0  0  0  0  0  0  0  0
   27.2019   30.4857   38.2789 C   0  0  0  0  0  0  0  0  0  0  0  0
   27.6190   30.8986   37.0044 C   0  0  0  0  0  0  0  0  0  0  0  0
   28.9338   30.6496   36.5944 C   0  0  0  0  0  0  0  0  0  0  0  0
   29.8096   30.0150   37.4783 C   0  0  0  0  0  0  0  0  0  0  0  0
   31.2004   29.5506   37.1320 C   0  0  2  0  0  0  0  0  0  0  0  0
  1  2  1  0
  2  3  2  0
  2  4  1  0
  4  5  2  0
  5  6  1  0
  6  7  2  0
  7  8  1  0
  8  9  2  0
  9 10  1  0
 10 11  2  0
 11 12  1  0
 12 13  2  0
 13 14  1  0
  8 15  1  0
 15 16  1  0
 16 17  1  0
 17 18  1  0
 18 19  1  0
 19 20  1  0
 18 21  1  0
 21 22  2  0
 22 23  1  0
 23 24  2  0
 24 25  1  0
 25 26  2  0
 26 27  1  0
 13  4  1  0
 27 15  1  0
 12  7  1  0
 27 20  1  1
 26 21  1  0
M  END
>  <AAScore>  (1) 
-7.084963595060835

>  <RootName>  (1) 
./4ZLY/04_DeltaGEst/trajectory_02/rank_01/lead_0116

$$$$
