confid_16
     RDKit          3D

 28 31  0  0  0  0  0  0  0  0999 V2000
   24.4800   26.1000   36.1300 N   0  0  0  0  0  0  0  0  0  0  0  0
   25.2500   26.2500   34.9900 C   0  0  0  0  0  0  0  0  0  0  0  0
   24.7400   25.7600   33.9900 O   0  0  0  0  0  0  0  0  0  0  0  0
   26.5900   26.8900   34.9600 C   0  0  0  0  0  0  0  0  0  0  0  0
   27.0600   27.2400   36.1600 N   0  0  0  0  0  0  0  0  0  0  0  0
   28.3000   27.7100   36.2400 N   0  0  0  0  0  0  0  0  0  0  0  0
   29.0500   27.9600   35.1500 C   0  0  0  0  0  0  0  0  0  0  0  0
   30.3400   28.4900   35.2600 C   0  0  0  0  0  0  0  0  0  0  0  0
   31.1100   28.8200   34.1400 C   0  0  0  0  0  0  0  0  0  0  0  0
   30.5200   28.6700   32.8800 C   0  0  0  0  0  0  0  0  0  0  0  0
   29.2900   28.0200   32.7700 C   0  0  0  0  0  0  0  0  0  0  0  0
   28.5200   27.7100   33.8900 C   0  0  0  0  0  0  0  0  0  0  0  0
   27.2700   27.0800   33.7600 C   0  0  0  0  0  0  0  0  0  0  0  0
   26.7500   26.8800   32.4900 N   0  0  0  0  0  0  0  0  0  0  0  0
   23.0511   25.9071   36.1473 C   0  0  0  0  0  0  0  0  0  0  0  0
   22.3417   26.2844   35.1137 N   0  0  0  0  0  0  0  0  0  0  0  0
   20.9200   26.2355   34.8945 C   0  0  0  0  0  0  0  0  0  0  0  0
   20.0514   25.8460   35.8257 C   0  0  0  0  0  0  0  0  0  0  0  0
   18.5742   25.8467   35.5873 C   0  0  0  0  0  0  0  0  0  0  0  0
   17.8902   25.1778   36.7138 N   0  0  0  0  0  0  0  0  0  0  0  0
   16.4903   25.6487   36.8367 C   0  0  0  0  0  0  0  0  0  0  0  0
   16.4265   26.8727   37.7456 C   0  0  0  0  0  0  0  0  0  0  0  0
   17.9544   23.7046   36.5658 C   0  0  0  0  0  0  0  0  0  0  0  0
   17.9065   23.0132   37.9346 C   0  0  0  0  0  0  0  0  0  0  0  0
   19.0760   23.4418   38.8103 C   0  0  0  0  0  0  0  0  0  0  0  0
   20.3119   25.8692   35.8243 S   0  0  2  0  0  4  0  0  0  0  0  0
   21.4808   26.2690   38.0561 C   0  0  0  0  0  0  0  0  0  0  0  0
   22.4350   25.2932   37.3816 C   0  0  0  0  0  0  0  0  0  0  0  0
  1  2  1  0
  2  3  2  0
  2  4  1  0
  4  5  2  0
  5  6  1  0
  6  7  2  0
  7  8  1  0
  8  9  2  0
  9 10  1  0
 10 11  2  0
 11 12  1  0
 12 13  2  0
 13 14  1  0
  1 15  1  0
 15 16  2  0
 16 17  1  0
 17 18  2  0
 18 19  1  0
 19 20  1  0
 20 21  1  0
 21 22  1  0
 20 23  1  0
 23 24  1  0
 24 25  1  0
 26 25  1  1
 26 27  1  0
 27 28  1  0
 13  4  1  0
 28 15  1  0
 12  7  1  0
 26 18  1  0
M  END
>  <AAScore>  (1) 
1090.2168746490229

>  <RootName>  (1) 
./4ZLY/04_DeltaGEst/trajectory_00/rank_01/lead_0024

$$$$
