confid_11
     RDKit          3D

 27 30  0  0  0  0  0  0  0  0999 V2000
   25.3300   26.2600   34.7600 N   0  0  0  0  0  0  0  0  0  0  0  0
   26.1200   25.9200   33.6900 C   0  0  0  0  0  0  0  0  0  0  0  0
   25.6300   25.1100   32.9400 O   0  0  0  0  0  0  0  0  0  0  0  0
   27.5200   26.3800   33.4600 C   0  0  0  0  0  0  0  0  0  0  0  0
   28.1600   26.6300   34.6100 N   0  0  0  0  0  0  0  0  0  0  0  0
   29.4800   26.8500   34.5700 N   0  0  0  0  0  0  0  0  0  0  0  0
   30.1900   26.7800   33.4400 C   0  0  0  0  0  0  0  0  0  0  0  0
   31.5600   27.0500   33.5000 C   0  0  0  0  0  0  0  0  0  0  0  0
   32.2700   27.2400   32.3100 C   0  0  0  0  0  0  0  0  0  0  0  0
   31.6100   27.2500   31.0800 C   0  0  0  0  0  0  0  0  0  0  0  0
   30.2700   26.8700   31.0600 C   0  0  0  0  0  0  0  0  0  0  0  0
   29.5100   26.6900   32.2300 C   0  0  0  0  0  0  0  0  0  0  0  0
   28.1400   26.4100   32.2000 C   0  0  0  0  0  0  0  0  0  0  0  0
   27.4300   26.1300   31.0500 N   0  0  0  0  0  0  0  0  0  0  0  0
   24.1832   25.5109   35.2167 C   0  0  0  0  0  0  0  0  0  0  0  0
   24.0903   24.1742   34.9392 N   0  0  0  0  0  0  0  0  0  0  0  0
   23.0304   23.4634   35.3922 C   0  0  0  0  0  0  0  0  0  0  0  0
   22.7726   22.0225   35.2295 C   0  0  0  0  0  0  0  0  0  0  0  0
   21.4444   21.7941   35.8580 N   0  0  0  0  0  0  0  0  0  0  0  0
   21.0576   23.0533   36.5504 C   0  0  0  0  0  0  0  0  0  0  0  0
   22.0664   24.0427   36.1357 C   0  0  0  0  0  0  0  0  0  0  0  0
   22.1169   25.3589   36.4495 N   0  0  0  0  0  0  0  0  0  0  0  0
   23.1547   26.1244   35.9956 C   0  0  0  0  0  0  0  0  0  0  0  0
   23.1752   27.5828   36.3646 C   0  0  0  0  0  0  0  0  0  0  0  0
   23.9206   27.8006   37.6774 C   0  0  0  0  0  0  0  0  0  0  0  0
   21.4632   20.6299   36.7639 C   0  0  0  0  0  0  0  0  0  0  0  0
   20.0434   20.2032   37.1277 C   0  0  0  0  0  0  0  0  0  0  0  0
  1  2  1  0
  2  3  2  0
  2  4  1  0
  4  5  2  0
  5  6  1  0
  6  7  2  0
  7  8  1  0
  8  9  2  0
  9 10  1  0
 10 11  2  0
 11 12  1  0
 12 13  2  0
 13 14  1  0
  1 15  1  0
 15 16  2  0
 16 17  1  0
 17 18  1  0
 18 19  1  0
 19 20  1  0
 20 21  1  0
 21 22  1  0
 22 23  2  0
 23 24  1  0
 24 25  1  0
 19 26  1  0
 26 27  1  0
 13  4  1  0
 23 15  1  0
 12  7  1  0
 21 17  2  0
M  END
>  <AAScore>  (1) 
6585.257058016046

>  <RootName>  (1) 
./4ZLY/04_DeltaGEst/trajectory_03/rank_00/lead_0309

$$$$
