confid_7
     RDKit          3D

 27 30  0  0  0  0  0  0  0  0999 V2000
   24.5700   26.8800   35.5900 N   0  0  0  0  0  0  0  0  0  0  0  0
   25.5000   26.4000   34.6900 C   0  0  0  0  0  0  0  0  0  0  0  0
   25.1700   25.5200   33.9100 O   0  0  0  0  0  0  0  0  0  0  0  0
   26.8400   27.0200   34.7400 C   0  0  0  0  0  0  0  0  0  0  0  0
   27.3800   27.2800   35.9400 N   0  0  0  0  0  0  0  0  0  0  0  0
   28.6200   27.7400   36.0300 N   0  0  0  0  0  0  0  0  0  0  0  0
   29.3800   28.0000   34.9600 C   0  0  0  0  0  0  0  0  0  0  0  0
   30.6700   28.5000   35.1300 C   0  0  0  0  0  0  0  0  0  0  0  0
   31.5400   28.6100   34.0300 C   0  0  0  0  0  0  0  0  0  0  0  0
   31.0900   28.2200   32.7700 C   0  0  0  0  0  0  0  0  0  0  0  0
   29.8000   27.7000   32.6000 C   0  0  0  0  0  0  0  0  0  0  0  0
   28.9600   27.5500   33.7100 C   0  0  0  0  0  0  0  0  0  0  0  0
   27.6600   27.0300   33.5900 C   0  0  0  0  0  0  0  0  0  0  0  0
   27.1600   26.7400   32.3400 N   0  0  0  0  0  0  0  0  0  0  0  0
   33.1512   29.2826   34.2511 S   0  0  0  0  0  6  0  0  0  0  0  0
   33.8212   28.5305   35.3663 O   0  0  0  0  0  0  0  0  0  0  0  0
   33.9703   29.0902   33.0051 O   0  0  0  0  0  0  0  0  0  0  0  0
   33.1130   31.0269   34.6886 C   0  0  0  0  0  0  0  0  0  0  0  0
   32.3580   31.9750   33.7229 C   0  0  0  0  0  0  0  0  0  0  0  0
   30.8287   31.9177   33.8825 C   0  0  0  0  0  0  0  0  0  0  0  0
   30.1552   32.9518   32.9712 C   0  0  0  0  0  0  0  0  0  0  0  0
   30.5639   32.7448   31.5648 N   0  0  0  0  0  0  0  0  0  0  0  0
   32.0269   32.8467   31.3886 C   0  0  0  0  0  0  0  0  0  0  0  0
   32.7421   31.7971   32.2447 C   0  0  0  0  0  0  0  0  0  0  0  0
   29.8455   33.5314   30.5265 C   0  0  0  0  0  0  0  0  0  0  0  0
   30.0915   35.0377   30.5589 C   0  0  0  0  0  0  0  0  0  0  0  0
   28.7232   34.4915   30.9346 C   0  0  0  0  0  0  0  0  0  0  0  0
  1  2  1  0
  2  3  2  0
  2  4  1  0
  4  5  2  0
  5  6  1  0
  6  7  2  0
  7  8  1  0
  8  9  2  0
  9 10  1  0
 10 11  2  0
 11 12  1  0
 12 13  2  0
 13 14  1  0
  9 15  1  0
 15 16  2  0
 15 17  2  0
 15 18  1  0
 18 19  1  0
 19 20  1  0
 20 21  1  0
 21 22  1  0
 22 23  1  0
 23 24  1  0
 22 25  1  0
 25 26  1  0
 26 27  1  0
 13  4  1  0
 24 19  1  0
 27 25  1  0
 12  7  1  0
M  END
>  <AAScore>  (1) 
138.48869673461166

>  <RootName>  (1) 
./4ZLY/04_DeltaGEst/trajectory_05/rank_01/lead_0256

$$$$
