confid_15
     RDKit          3D

 27 30  0  0  0  0  0  0  0  0999 V2000
   24.4800   26.1000   36.1300 N   0  0  0  0  0  0  0  0  0  0  0  0
   25.2500   26.2500   34.9900 C   0  0  0  0  0  0  0  0  0  0  0  0
   24.7400   25.7600   33.9900 O   0  0  0  0  0  0  0  0  0  0  0  0
   26.5900   26.8900   34.9600 C   0  0  0  0  0  0  0  0  0  0  0  0
   27.0600   27.2400   36.1600 N   0  0  0  0  0  0  0  0  0  0  0  0
   28.3000   27.7100   36.2400 N   0  0  0  0  0  0  0  0  0  0  0  0
   29.0500   27.9600   35.1500 C   0  0  0  0  0  0  0  0  0  0  0  0
   30.3400   28.4900   35.2600 C   0  0  0  0  0  0  0  0  0  0  0  0
   31.1100   28.8200   34.1400 C   0  0  0  0  0  0  0  0  0  0  0  0
   30.5200   28.6700   32.8800 C   0  0  0  0  0  0  0  0  0  0  0  0
   29.2900   28.0200   32.7700 C   0  0  0  0  0  0  0  0  0  0  0  0
   28.5200   27.7100   33.8900 C   0  0  0  0  0  0  0  0  0  0  0  0
   27.2700   27.0800   33.7600 C   0  0  0  0  0  0  0  0  0  0  0  0
   26.7500   26.8800   32.4900 N   0  0  0  0  0  0  0  0  0  0  0  0
   23.0426   26.0738   36.1512 C   0  0  0  0  0  0  0  0  0  0  0  0
   22.2745   25.6691   37.2312 C   0  0  0  0  0  0  0  0  0  0  0  0
   20.9665   25.8487   36.8258 C   0  0  0  0  0  0  0  0  0  0  0  0
   19.7365   25.5499   37.5564 C   0  0  0  0  0  0  0  0  0  0  0  0
   19.7761   25.0006   38.6903 O   0  0  0  0  0  0  0  0  0  0  0  0
   18.4849   25.8900   36.9241 N   0  0  0  0  0  0  0  0  0  0  0  0
   17.2252   25.2507   37.3508 C   0  0  0  0  0  0  0  0  0  0  0  0
   16.1900   26.3012   37.7679 C   0  0  0  0  0  0  0  0  0  0  0  0
   16.6816   24.3334   36.2503 C   0  0  0  0  0  0  0  0  0  0  0  0
   18.5178   26.8705   35.8162 C   0  0  0  0  0  0  0  0  0  0  0  0
   19.6758   26.5778   34.8403 C   0  0  0  0  0  0  0  0  0  0  0  0
   20.9157   26.3576   35.5846 N   0  0  0  0  0  0  0  0  0  0  0  0
   22.1805   26.4952   35.1475 C   0  0  0  0  0  0  0  0  0  0  0  0
  1  2  1  0
  2  3  2  0
  2  4  1  0
  4  5  2  0
  5  6  1  0
  6  7  2  0
  7  8  1  0
  8  9  2  0
  9 10  1  0
 10 11  2  0
 11 12  1  0
 12 13  2  0
 13 14  1  0
  1 15  1  0
 15 16  1  0
 16 17  2  0
 17 18  1  0
 18 19  2  0
 18 20  1  0
 20 21  1  0
 21 22  1  0
 21 23  1  0
 20 24  1  0
 24 25  1  0
 25 26  1  0
 26 27  1  0
 13  4  1  0
 27 15  2  0
 12  7  1  0
 26 17  1  0
M  END
>  <AAScore>  (1) 
367.3232009601451

>  <RootName>  (1) 
./4ZLY/04_DeltaGEst/trajectory_00/rank_00/lead_0475

$$$$
