confid_19
     RDKit          3D

 29 32  0  0  0  0  0  0  0  0999 V2000
   24.5500   26.3900   36.2500 N   0  0  0  0  0  0  0  0  0  0  0  0
   25.6000   26.1300   35.4000 C   0  0  0  0  0  0  0  0  0  0  0  0
   25.4300   25.4300   34.4200 O   0  0  0  0  0  0  0  0  0  0  0  0
   26.9800   26.6300   35.7100 C   0  0  0  0  0  0  0  0  0  0  0  0
   27.3200   26.8200   36.9800 N   0  0  0  0  0  0  0  0  0  0  0  0
   28.4700   27.4000   37.3100 N   0  0  0  0  0  0  0  0  0  0  0  0
   29.4000   27.6300   36.3700 C   0  0  0  0  0  0  0  0  0  0  0  0
   30.6600   28.0500   36.8000 C   0  0  0  0  0  0  0  0  0  0  0  0
   31.5700   28.3600   35.7800 C   0  0  0  0  0  0  0  0  0  0  0  0
   31.3700   28.1000   34.4300 C   0  0  0  0  0  0  0  0  0  0  0  0
   30.1200   27.5900   34.0500 C   0  0  0  0  0  0  0  0  0  0  0  0
   29.1500   27.3400   35.0300 C   0  0  0  0  0  0  0  0  0  0  0  0
   27.8800   26.8900   34.6600 C   0  0  0  0  0  0  0  0  0  0  0  0
   27.4800   26.6100   33.3700 N   0  0  0  0  0  0  0  0  0  0  0  0
   23.2632   25.7564   36.1652 C   0  0  0  0  0  0  0  0  0  0  0  0
   22.1940   26.4471   36.4384 N   0  0  0  0  0  0  0  0  0  0  0  0
   20.8827   25.8598   36.4805 C   0  0  0  0  0  0  0  0  0  0  0  0
   20.6674   24.5893   36.0706 C   0  0  0  0  0  0  0  0  0  0  0  0
   19.4847   23.8456   36.6995 C   0  0  0  0  0  0  0  0  0  0  0  0
   18.7553   22.8886   35.8219 N   0  0  0  0  0  0  0  0  0  0  0  0
   17.3566   23.3126   35.6081 C   0  0  0  0  0  0  0  0  0  0  0  0
   16.5503   22.1922   34.9597 C   0  0  0  0  0  0  0  0  0  0  0  0
   19.3446   22.7952   34.5958 O   0  0  0  0  0  0  0  0  0  0  0  0
   20.3387   21.7964   34.6810 C   0  0  0  0  0  0  0  0  0  0  0  0
   21.6273   22.3285   35.3426 C   0  0  0  0  0  0  0  0  0  0  0  0
   21.7761   23.8774   35.2716 C   0  0  1  0  0  0  0  0  0  0  0  0
   21.7562   24.3516   33.7979 C   0  0  0  0  0  0  0  0  0  0  0  0
   23.1124   24.3210   35.8407 C   0  0  0  0  0  0  0  0  0  0  0  0
   24.0735   23.5178   35.9988 O   0  0  0  0  0  0  0  0  0  0  0  0
  1  2  1  0
  2  3  2  0
  2  4  1  0
  4  5  2  0
  5  6  1  0
  6  7  2  0
  7  8  1  0
  8  9  2  0
  9 10  1  0
 10 11  2  0
 11 12  1  0
 12 13  2  0
 13 14  1  0
  1 15  1  0
 15 16  2  0
 16 17  1  0
 17 18  2  0
 18 19  1  0
 19 20  1  0
 20 21  1  0
 21 22  1  0
 20 23  1  0
 23 24  1  0
 24 25  1  0
 25 26  1  0
 26 27  1  6
 26 28  1  0
 28 29  2  0
 13  4  1  0
 28 15  1  0
 12  7  1  0
 26 18  1  0
M  END
>  <AAScore>  (1) 
17047.865083565714

>  <RootName>  (1) 
./4ZLY/04_DeltaGEst/trajectory_01/rank_00/lead_0093

$$$$
