confid_3
     RDKit          3D

 27 30  0  0  0  0  0  0  0  0999 V2000
   24.4800   26.1000   36.1300 N   0  0  0  0  0  0  0  0  0  0  0  0
   25.2500   26.2500   34.9900 C   0  0  0  0  0  0  0  0  0  0  0  0
   24.7400   25.7600   33.9900 O   0  0  0  0  0  0  0  0  0  0  0  0
   26.5900   26.8900   34.9600 C   0  0  0  0  0  0  0  0  0  0  0  0
   27.0600   27.2400   36.1600 N   0  0  0  0  0  0  0  0  0  0  0  0
   28.3000   27.7100   36.2400 N   0  0  0  0  0  0  0  0  0  0  0  0
   29.0500   27.9600   35.1500 C   0  0  0  0  0  0  0  0  0  0  0  0
   30.3400   28.4900   35.2600 C   0  0  0  0  0  0  0  0  0  0  0  0
   31.1100   28.8200   34.1400 C   0  0  0  0  0  0  0  0  0  0  0  0
   30.5200   28.6700   32.8800 C   0  0  0  0  0  0  0  0  0  0  0  0
   29.2900   28.0200   32.7700 C   0  0  0  0  0  0  0  0  0  0  0  0
   28.5200   27.7100   33.8900 C   0  0  0  0  0  0  0  0  0  0  0  0
   27.2700   27.0800   33.7600 C   0  0  0  0  0  0  0  0  0  0  0  0
   26.7500   26.8800   32.4900 N   0  0  0  0  0  0  0  0  0  0  0  0
   23.5477   25.0301   36.3721 C   0  0  0  0  0  0  0  0  0  0  0  0
   22.4936   25.2488   37.2043 N   0  0  0  0  0  0  0  0  0  0  0  0
   21.5913   24.2765   37.5010 C   0  0  0  0  0  0  0  0  0  0  0  0
   21.7297   22.9931   36.9567 C   0  0  0  0  0  0  0  0  0  0  0  0
   20.7245   21.9275   37.3039 C   0  0  0  0  0  0  0  0  0  0  0  0
   20.9914   20.6080   36.6406 C   0  0  0  0  0  0  0  0  0  0  0  0
   20.2025   19.6485   36.8581 O   0  0  0  0  0  0  0  0  0  0  0  0
   22.1265   20.4308   35.7751 N   0  0  0  0  0  0  0  0  0  0  0  0
   22.4303   19.1306   35.1785 C   0  0  0  0  0  0  0  0  0  0  0  0
   23.2178   18.2701   36.1594 C   0  0  0  0  0  0  0  0  0  0  0  0
   23.0082   21.4703   35.5543 O   0  0  0  0  0  0  0  0  0  0  0  0
   22.8203   22.7345   36.1122 C   0  0  0  0  0  0  0  0  0  0  0  0
   23.7356   23.7497   35.8254 C   0  0  0  0  0  0  0  0  0  0  0  0
  1  2  1  0
  2  3  2  0
  2  4  1  0
  4  5  2  0
  5  6  1  0
  6  7  2  0
  7  8  1  0
  8  9  2  0
  9 10  1  0
 10 11  2  0
 11 12  1  0
 12 13  2  0
 13 14  1  0
  1 15  1  0
 15 16  2  0
 16 17  1  0
 17 18  2  0
 18 19  1  0
 19 20  1  0
 20 21  2  0
 20 22  1  0
 22 23  1  0
 23 24  1  0
 22 25  1  0
 25 26  1  0
 26 27  2  0
 13  4  1  0
 27 15  1  0
 12  7  1  0
 26 18  1  0
M  END
>  <AAScore>  (1) 
7105.267233258223

>  <RootName>  (1) 
./4ZLY/04_DeltaGEst/trajectory_00/rank_01/lead_0083

$$$$
