confid_14
     RDKit          3D

 29 32  0  0  0  0  0  0  0  0999 V2000
   24.2000   26.2400   35.6900 N   0  0  0  0  0  0  0  0  0  0  0  0
   24.8500   26.2800   34.4800 C   0  0  0  0  0  0  0  0  0  0  0  0
   24.3100   25.7400   33.5400 O   0  0  0  0  0  0  0  0  0  0  0  0
   26.1800   26.9700   34.4700 C   0  0  0  0  0  0  0  0  0  0  0  0
   26.6500   27.6000   35.5500 N   0  0  0  0  0  0  0  0  0  0  0  0
   27.7900   28.2700   35.6200 N   0  0  0  0  0  0  0  0  0  0  0  0
   28.5400   28.3000   34.5100 C   0  0  0  0  0  0  0  0  0  0  0  0
   29.7700   28.9400   34.5600 C   0  0  0  0  0  0  0  0  0  0  0  0
   30.7000   28.8900   33.5000 C   0  0  0  0  0  0  0  0  0  0  0  0
   30.3700   28.1400   32.3700 C   0  0  0  0  0  0  0  0  0  0  0  0
   29.1200   27.5200   32.2800 C   0  0  0  0  0  0  0  0  0  0  0  0
   28.2100   27.6100   33.3300 C   0  0  0  0  0  0  0  0  0  0  0  0
   26.9700   26.9700   33.3100 C   0  0  0  0  0  0  0  0  0  0  0  0
   26.5300   26.2400   32.2200 N   0  0  0  0  0  0  0  0  0  0  0  0
   30.1297   29.6981   35.7274 N   0  0  0  0  0  0  0  0  0  0  0  0
   31.2419   29.2567   36.5763 C   0  0  0  0  0  0  0  0  0  0  0  0
   32.2364   30.4065   36.7644 C   0  0  0  0  0  0  0  0  0  0  0  0
   31.5490   31.6623   37.1101 N   0  0  0  0  0  0  0  0  0  0  0  0
   32.3291   32.8178   37.4724 C   0  0  0  0  0  0  0  0  0  0  0  0
   33.3374   33.2844   36.6139 C   0  0  0  0  0  0  0  0  0  0  0  0
   34.0921   34.4115   36.9514 C   0  0  0  0  0  0  0  0  0  0  0  0
   33.8488   35.0932   38.1586 C   0  0  0  0  0  0  0  0  0  0  0  0
   34.5714   36.2349   38.5377 O   0  0  0  0  0  0  0  0  0  0  0  0
   35.6066   36.8262   37.7593 C   0  0  0  0  0  0  0  0  0  0  0  0
   32.8505   34.6219   39.0183 C   0  0  0  0  0  0  0  0  0  0  0  0
   32.0941   33.4942   38.6833 C   0  0  0  0  0  0  0  0  0  0  0  0
   31.1527   33.0483   39.5527 F   0  0  0  0  0  0  0  0  0  0  0  0
   30.0813   31.7109   37.1805 C   0  0  0  0  0  0  0  0  0  0  0  0
   29.4703   30.9884   35.9741 C   0  0  0  0  0  0  0  0  0  0  0  0
  1  2  1  0
  2  3  2  0
  2  4  1  0
  4  5  2  0
  5  6  1  0
  6  7  2  0
  7  8  1  0
  8  9  2  0
  9 10  1  0
 10 11  2  0
 11 12  1  0
 12 13  2  0
 13 14  1  0
  8 15  1  0
 15 16  1  0
 16 17  1  0
 17 18  1  0
 18 19  1  0
 19 20  2  0
 20 21  1  0
 21 22  2  0
 22 23  1  0
 23 24  1  0
 22 25  1  0
 25 26  2  0
 26 27  1  0
 18 28  1  0
 28 29  1  0
 13  4  1  0
 29 15  1  0
 12  7  1  0
 26 19  1  0
M  END
>  <AAScore>  (1) 
-7.609275946496476

>  <RootName>  (1) 
./4ZLY/04_DeltaGEst/trajectory_04/rank_01/lead_0319

$$$$
