confid_3
     RDKit          3D

 27 30  0  0  0  0  0  0  0  0999 V2000
   24.6900   26.1200   35.5300 N   0  0  0  0  0  0  0  0  0  0  0  0
   25.6600   25.6700   34.6600 C   0  0  0  0  0  0  0  0  0  0  0  0
   25.2400   25.0100   33.7200 O   0  0  0  0  0  0  0  0  0  0  0  0
   27.0300   26.2200   34.8800 C   0  0  0  0  0  0  0  0  0  0  0  0
   27.3500   26.7300   36.0700 N   0  0  0  0  0  0  0  0  0  0  0  0
   28.5700   27.1800   36.3300 N   0  0  0  0  0  0  0  0  0  0  0  0
   29.5300   27.1100   35.3900 C   0  0  0  0  0  0  0  0  0  0  0  0
   30.8300   27.5700   35.6500 C   0  0  0  0  0  0  0  0  0  0  0  0
   31.8500   27.5400   34.6900 C   0  0  0  0  0  0  0  0  0  0  0  0
   31.5100   27.1200   33.4000 C   0  0  0  0  0  0  0  0  0  0  0  0
   30.2200   26.6300   33.1100 C   0  0  0  0  0  0  0  0  0  0  0  0
   29.2400   26.6600   34.1000 C   0  0  0  0  0  0  0  0  0  0  0  0
   27.9300   26.2600   33.8100 C   0  0  0  0  0  0  0  0  0  0  0  0
   27.5200   25.7100   32.6100 N   0  0  0  0  0  0  0  0  0  0  0  0
   23.3061   26.2560   35.1720 C   0  0  0  0  0  0  0  0  0  0  0  0
   22.3111   25.7711   35.9458 N   0  0  0  0  0  0  0  0  0  0  0  0
   21.1848   26.1020   35.2814 C   0  0  0  0  0  0  0  0  0  0  0  0
   21.5186   26.7863   34.1326 C   0  0  0  0  0  0  0  0  0  0  0  0
   20.5717   27.3821   33.1397 C   0  0  0  0  0  0  0  0  0  0  0  0
   20.8555   26.8781   31.7899 N   0  0  0  0  0  0  0  0  0  0  0  0
   22.0535   27.2820   31.0968 C   0  0  0  0  0  0  0  0  0  0  0  0
   21.9658   27.7578   29.9326 O   0  0  0  0  0  0  0  0  0  0  0  0
   23.4228   27.0436   31.6798 C   0  0  0  0  0  0  0  0  0  0  0  0
   23.5977   27.6656   33.0665 C   0  0  0  0  0  0  0  0  0  0  0  0
   22.8550   26.8960   34.0671 N   0  0  0  0  0  0  0  0  0  0  0  0
   19.8059   26.1665   31.0510 C   0  0  0  0  0  0  0  0  0  0  0  0
   18.7785   27.1440   30.4869 C   0  0  0  0  0  0  0  0  0  0  0  0
  1  2  1  0
  2  3  2  0
  2  4  1  0
  4  5  2  0
  5  6  1  0
  6  7  2  0
  7  8  1  0
  8  9  2  0
  9 10  1  0
 10 11  2  0
 11 12  1  0
 12 13  2  0
 13 14  1  0
  1 15  1  0
 15 16  2  0
 16 17  1  0
 17 18  2  0
 18 19  1  0
 19 20  1  0
 20 21  1  0
 21 22  2  0
 21 23  1  0
 23 24  1  0
 24 25  1  0
 20 26  1  0
 26 27  1  0
 13  4  1  0
 25 15  1  0
 12  7  1  0
 25 18  1  0
M  END
>  <AAScore>  (1) 
3524.057129057724

>  <RootName>  (1) 
./4ZLY/04_DeltaGEst/trajectory_02/rank_00/lead_0258

$$$$
