confid_8
     RDKit          3D

 27 30  0  0  0  0  0  0  0  0999 V2000
   24.6900   26.1200   35.5300 N   0  0  0  0  0  0  0  0  0  0  0  0
   25.6600   25.6700   34.6600 C   0  0  0  0  0  0  0  0  0  0  0  0
   25.2400   25.0100   33.7200 O   0  0  0  0  0  0  0  0  0  0  0  0
   27.0300   26.2200   34.8800 C   0  0  0  0  0  0  0  0  0  0  0  0
   27.3500   26.7300   36.0700 N   0  0  0  0  0  0  0  0  0  0  0  0
   28.5700   27.1800   36.3300 N   0  0  0  0  0  0  0  0  0  0  0  0
   29.5300   27.1100   35.3900 C   0  0  0  0  0  0  0  0  0  0  0  0
   30.8300   27.5700   35.6500 C   0  0  0  0  0  0  0  0  0  0  0  0
   31.8500   27.5400   34.6900 C   0  0  0  0  0  0  0  0  0  0  0  0
   31.5100   27.1200   33.4000 C   0  0  0  0  0  0  0  0  0  0  0  0
   30.2200   26.6300   33.1100 C   0  0  0  0  0  0  0  0  0  0  0  0
   29.2400   26.6600   34.1000 C   0  0  0  0  0  0  0  0  0  0  0  0
   27.9300   26.2600   33.8100 C   0  0  0  0  0  0  0  0  0  0  0  0
   27.5200   25.7100   32.6100 N   0  0  0  0  0  0  0  0  0  0  0  0
   31.1921   28.0745   36.9996 C   0  0  0  0  0  0  0  0  0  0  0  0
   32.0278   29.1413   37.2757 C   0  0  0  0  0  0  0  0  0  0  0  0
   32.0962   29.2428   38.6523 C   0  0  0  0  0  0  0  0  0  0  0  0
   32.9342   30.2816   39.3590 C   0  0  0  0  0  0  0  0  0  0  0  0
   32.5980   30.4353   40.7197 O   0  0  0  0  0  0  0  0  0  0  0  0
   31.3308   31.0461   40.8775 C   0  0  0  0  0  0  0  0  0  0  0  0
   30.4898   30.1984   41.8326 C   0  0  0  0  0  0  0  0  0  0  0  0
   29.9824   28.8845   41.2086 C   0  0  0  0  0  0  0  0  0  0  0  0
   29.3204   28.1793   42.1998 F   0  0  0  0  0  0  0  0  0  0  0  0
   29.0623   29.1723   40.2124 F   0  0  0  0  0  0  0  0  0  0  0  0
   31.1153   27.9924   40.6497 C   0  0  0  0  0  0  0  0  0  0  0  0
   31.3601   28.2577   39.2262 N   0  0  0  0  0  0  0  0  0  0  0  0
   30.8028   27.5518   38.2204 C   0  0  0  0  0  0  0  0  0  0  0  0
  1  2  1  0
  2  3  2  0
  2  4  1  0
  4  5  2  0
  5  6  1  0
  6  7  2  0
  7  8  1  0
  8  9  2  0
  9 10  1  0
 10 11  2  0
 11 12  1  0
 12 13  2  0
 13 14  1  0
  8 15  1  0
 15 16  1  0
 16 17  2  0
 17 18  1  0
 18 19  1  0
 19 20  1  0
 20 21  1  0
 21 22  1  0
 22 23  1  0
 22 24  1  0
 22 25  1  0
 25 26  1  0
 26 27  1  0
 13  4  1  0
 27 15  2  0
 12  7  1  0
 26 17  1  0
M  END
>  <AAScore>  (1) 
0.5288011318595937

>  <RootName>  (1) 
./4ZLY/04_DeltaGEst/trajectory_02/rank_01/lead_0071

$$$$
