confid_2
     RDKit          3D

 26 29  0  0  0  0  0  0  0  0999 V2000
   24.2000   26.2400   35.6900 N   0  0  0  0  0  0  0  0  0  0  0  0
   24.8500   26.2800   34.4800 C   0  0  0  0  0  0  0  0  0  0  0  0
   24.3100   25.7400   33.5400 O   0  0  0  0  0  0  0  0  0  0  0  0
   26.1800   26.9700   34.4700 C   0  0  0  0  0  0  0  0  0  0  0  0
   26.6500   27.6000   35.5500 N   0  0  0  0  0  0  0  0  0  0  0  0
   27.7900   28.2700   35.6200 N   0  0  0  0  0  0  0  0  0  0  0  0
   28.5400   28.3000   34.5100 C   0  0  0  0  0  0  0  0  0  0  0  0
   29.7700   28.9400   34.5600 C   0  0  0  0  0  0  0  0  0  0  0  0
   30.7000   28.8900   33.5000 C   0  0  0  0  0  0  0  0  0  0  0  0
   30.3700   28.1400   32.3700 C   0  0  0  0  0  0  0  0  0  0  0  0
   29.1200   27.5200   32.2800 C   0  0  0  0  0  0  0  0  0  0  0  0
   28.2100   27.6100   33.3300 C   0  0  0  0  0  0  0  0  0  0  0  0
   26.9700   26.9700   33.3100 C   0  0  0  0  0  0  0  0  0  0  0  0
   26.5300   26.2400   32.2200 N   0  0  0  0  0  0  0  0  0  0  0  0
   30.1359   29.6799   35.7389 N   0  0  0  0  0  0  0  0  0  0  0  0
   29.4090   30.9107   36.0825 C   0  0  0  0  0  0  0  0  0  0  0  0
   30.3294   31.9583   36.7236 C   0  0  0  0  0  0  0  0  0  0  0  0
   31.5810   32.1523   35.9070 C   0  0  0  0  0  0  0  0  0  0  0  0
   31.8773   33.3293   35.2175 C   0  0  0  0  0  0  0  0  0  0  0  0
   33.3360   33.1440   34.4138 S   0  0  0  0  0  0  0  0  0  0  0  0
   33.6220   31.5671   34.9143 C   0  0  0  0  0  0  0  0  0  0  0  0
   32.5631   31.1479   35.7179 C   0  0  0  0  0  0  0  0  0  0  0  0
   32.5587   29.7611   36.3311 C   0  0  0  0  0  0  0  0  0  0  0  0
   31.1733   29.1582   36.6357 C   0  0  0  0  0  0  0  0  0  0  0  0
   31.0794   34.5257   35.1733 C   0  0  0  0  0  0  0  0  0  0  0  0
   30.4373   35.4877   35.1376 N   0  0  0  0  0  0  0  0  0  0  0  0
  1  2  1  0
  2  3  2  0
  2  4  1  0
  4  5  2  0
  5  6  1  0
  6  7  2  0
  7  8  1  0
  8  9  2  0
  9 10  1  0
 10 11  2  0
 11 12  1  0
 12 13  2  0
 13 14  1  0
  8 15  1  0
 15 16  1  0
 16 17  1  0
 17 18  1  0
 18 19  2  0
 19 20  1  0
 20 21  1  0
 21 22  2  0
 22 23  1  0
 23 24  1  0
 19 25  1  0
 25 26  3  0
 13  4  1  0
 24 15  1  0
 12  7  1  0
 22 18  1  0
M  END
>  <AAScore>  (1) 
-7.997827990097179

>  <RootName>  (1) 
./4ZLY/04_DeltaGEst/trajectory_04/rank_01/lead_0251

$$$$
