confid_4
     RDKit          3D

 30 33  0  0  0  0  0  0  0  0999 V2000
   24.5500   26.3900   36.2500 N   0  0  0  0  0  0  0  0  0  0  0  0
   25.6000   26.1300   35.4000 C   0  0  0  0  0  0  0  0  0  0  0  0
   25.4300   25.4300   34.4200 O   0  0  0  0  0  0  0  0  0  0  0  0
   26.9800   26.6300   35.7100 C   0  0  0  0  0  0  0  0  0  0  0  0
   27.3200   26.8200   36.9800 N   0  0  0  0  0  0  0  0  0  0  0  0
   28.4700   27.4000   37.3100 N   0  0  0  0  0  0  0  0  0  0  0  0
   29.4000   27.6300   36.3700 C   0  0  0  0  0  0  0  0  0  0  0  0
   30.6600   28.0500   36.8000 C   0  0  0  0  0  0  0  0  0  0  0  0
   31.5700   28.3600   35.7800 C   0  0  0  0  0  0  0  0  0  0  0  0
   31.3700   28.1000   34.4300 C   0  0  0  0  0  0  0  0  0  0  0  0
   30.1200   27.5900   34.0500 C   0  0  0  0  0  0  0  0  0  0  0  0
   29.1500   27.3400   35.0300 C   0  0  0  0  0  0  0  0  0  0  0  0
   27.8800   26.8900   34.6600 C   0  0  0  0  0  0  0  0  0  0  0  0
   27.4800   26.6100   33.3700 N   0  0  0  0  0  0  0  0  0  0  0  0
   23.2541   25.6995   36.1625 C   0  0  0  0  0  0  0  0  0  0  0  0
   23.3465   24.3250   36.8544 C   0  0  0  0  0  0  0  0  0  0  0  0
   23.6849   24.4860   38.3475 C   0  0  0  0  0  0  0  0  0  0  0  0
   23.0318   25.6739   38.9123 N   0  0  0  0  0  0  0  0  0  0  0  0
   23.6302   26.3382   40.0365 C   0  0  0  0  0  0  0  0  0  0  0  0
   24.0268   25.6585   41.0219 O   0  0  0  0  0  0  0  0  0  0  0  0
   23.8625   27.8238   40.0236 C   0  0  0  0  0  0  0  0  0  0  0  0
   25.3625   28.1354   40.0514 C   0  0  0  0  0  0  0  0  0  0  0  0
   25.6091   29.5950   39.7746 C   0  0  0  0  0  0  0  0  0  0  0  0
   25.3878   30.5530   40.7750 C   0  0  0  0  0  0  0  0  0  0  0  0
   25.5896   31.9058   40.4890 C   0  0  0  0  0  0  0  0  0  0  0  0
   25.9975   32.2879   39.2492 N   0  0  0  0  0  0  0  0  0  0  0  0
   26.2159   31.3812   38.2597 C   0  0  0  0  0  0  0  0  0  0  0  0
   26.0170   30.0197   38.5007 C   0  0  0  0  0  0  0  0  0  0  0  0
   21.8341   26.2134   38.2576 C   0  0  0  0  0  0  0  0  0  0  0  0
   22.1323   26.5692   36.7903 C   0  0  0  0  0  0  0  0  0  0  0  0
  1  2  1  0
  2  3  2  0
  2  4  1  0
  4  5  2  0
  5  6  1  0
  6  7  2  0
  7  8  1  0
  8  9  2  0
  9 10  1  0
 10 11  2  0
 11 12  1  0
 12 13  2  0
 13 14  1  0
  1 15  1  0
 15 16  1  0
 16 17  1  0
 17 18  1  0
 18 19  1  0
 19 20  2  0
 19 21  1  0
 21 22  1  0
 22 23  1  0
 23 24  2  0
 24 25  1  0
 25 26  2  0
 26 27  1  0
 27 28  2  0
 18 29  1  0
 29 30  1  0
 13  4  1  0
 30 15  1  0
 12  7  1  0
 28 23  1  0
M  END
>  <AAScore>  (1) 
266.0514568980256

>  <RootName>  (1) 
./4ZLY/04_DeltaGEst/trajectory_01/rank_00/lead_0263

$$$$
