confid_14
     RDKit          3D

 29 32  0  0  0  0  0  0  0  0999 V2000
   24.2000   26.2400   35.6900 N   0  0  0  0  0  0  0  0  0  0  0  0
   24.8500   26.2800   34.4800 C   0  0  0  0  0  0  0  0  0  0  0  0
   24.3100   25.7400   33.5400 O   0  0  0  0  0  0  0  0  0  0  0  0
   26.1800   26.9700   34.4700 C   0  0  0  0  0  0  0  0  0  0  0  0
   26.6500   27.6000   35.5500 N   0  0  0  0  0  0  0  0  0  0  0  0
   27.7900   28.2700   35.6200 N   0  0  0  0  0  0  0  0  0  0  0  0
   28.5400   28.3000   34.5100 C   0  0  0  0  0  0  0  0  0  0  0  0
   29.7700   28.9400   34.5600 C   0  0  0  0  0  0  0  0  0  0  0  0
   30.7000   28.8900   33.5000 C   0  0  0  0  0  0  0  0  0  0  0  0
   30.3700   28.1400   32.3700 C   0  0  0  0  0  0  0  0  0  0  0  0
   29.1200   27.5200   32.2800 C   0  0  0  0  0  0  0  0  0  0  0  0
   28.2100   27.6100   33.3300 C   0  0  0  0  0  0  0  0  0  0  0  0
   26.9700   26.9700   33.3100 C   0  0  0  0  0  0  0  0  0  0  0  0
   26.5300   26.2400   32.2200 N   0  0  0  0  0  0  0  0  0  0  0  0
   30.1377   29.6756   35.7362 N   0  0  0  0  0  0  0  0  0  0  0  0
   29.6191   31.0328   35.9236 C   0  0  0  0  0  0  0  0  0  0  0  0
   30.1270   31.6480   37.2389 C   0  0  0  0  0  0  0  0  0  0  0  0
   31.5881   31.4802   37.4328 N   0  0  0  0  0  0  0  0  0  0  0  0
   32.1930   30.2276   36.9171 C   0  0  0  0  0  0  0  0  0  0  0  0
   31.1486   29.1441   36.6498 C   0  0  0  0  0  0  0  0  0  0  0  0
   32.3972   32.6859   37.1521 C   0  0  0  0  0  0  0  0  0  0  0  0
   32.2524   33.2055   35.7084 C   0  0  0  0  0  0  0  0  0  0  0  0
   33.2632   34.2875   35.4363 C   0  0  0  0  0  0  0  0  0  0  0  0
   32.9520   35.6315   35.6966 C   0  0  0  0  0  0  0  0  0  0  0  0
   33.9004   36.6327   35.4658 C   0  0  0  0  0  0  0  0  0  0  0  0
   35.1805   36.3008   34.9957 C   0  0  0  0  0  0  0  0  0  0  0  0
   36.1814   37.3787   34.6999 C   0  0  0  0  0  0  0  0  0  0  0  0
   35.4923   34.9576   34.7354 C   0  0  0  0  0  0  0  0  0  0  0  0
   34.5441   33.9565   34.9652 C   0  0  0  0  0  0  0  0  0  0  0  0
  1  2  1  0
  2  3  2  0
  2  4  1  0
  4  5  2  0
  5  6  1  0
  6  7  2  0
  7  8  1  0
  8  9  2  0
  9 10  1  0
 10 11  2  0
 11 12  1  0
 12 13  2  0
 13 14  1  0
  8 15  1  0
 15 16  1  0
 16 17  1  0
 17 18  1  0
 18 19  1  0
 19 20  1  0
 18 21  1  0
 21 22  1  0
 22 23  1  0
 23 24  2  0
 24 25  1  0
 25 26  2  0
 26 27  1  0
 26 28  1  0
 28 29  2  0
 13  4  1  0
 20 15  1  0
 29 23  1  0
 12  7  1  0
M  END
>  <AAScore>  (1) 
-8.12849271821642

>  <RootName>  (1) 
./4ZLY/04_DeltaGEst/trajectory_04/rank_01/lead_0209

$$$$
