confid_15
     RDKit          3D

 29 32  0  0  0  0  0  0  0  0999 V2000
   24.5700   26.8800   35.5900 N   0  0  0  0  0  0  0  0  0  0  0  0
   25.5000   26.4000   34.6900 C   0  0  0  0  0  0  0  0  0  0  0  0
   25.1700   25.5200   33.9100 O   0  0  0  0  0  0  0  0  0  0  0  0
   26.8400   27.0200   34.7400 C   0  0  0  0  0  0  0  0  0  0  0  0
   27.3800   27.2800   35.9400 N   0  0  0  0  0  0  0  0  0  0  0  0
   28.6200   27.7400   36.0300 N   0  0  0  0  0  0  0  0  0  0  0  0
   29.3800   28.0000   34.9600 C   0  0  0  0  0  0  0  0  0  0  0  0
   30.6700   28.5000   35.1300 C   0  0  0  0  0  0  0  0  0  0  0  0
   31.5400   28.6100   34.0300 C   0  0  0  0  0  0  0  0  0  0  0  0
   31.0900   28.2200   32.7700 C   0  0  0  0  0  0  0  0  0  0  0  0
   29.8000   27.7000   32.6000 C   0  0  0  0  0  0  0  0  0  0  0  0
   28.9600   27.5500   33.7100 C   0  0  0  0  0  0  0  0  0  0  0  0
   27.6600   27.0300   33.5900 C   0  0  0  0  0  0  0  0  0  0  0  0
   27.1600   26.7400   32.3400 N   0  0  0  0  0  0  0  0  0  0  0  0
   23.2758   26.2293   35.8496 C   0  0  1  0  0  0  0  0  0  0  0  0
   23.3341   25.4226   37.1616 C   0  0  0  0  0  0  0  0  0  0  0  0
   23.4066   26.3237   38.4047 C   0  0  0  0  0  0  0  0  0  0  0  0
   22.2573   27.3518   38.4041 C   0  0  2  0  0  0  0  0  0  0  0  0
   22.1871   28.1853   37.1033 C   0  0  0  0  0  0  0  0  0  0  0  0
   22.1309   27.2657   35.8719 C   0  0  0  0  0  0  0  0  0  0  0  0
   22.2123   28.1555   39.6682 N   0  0  0  0  0  0  0  0  0  0  0  0
   23.0890   29.1948   39.9683 C   0  0  0  0  0  0  0  0  0  0  0  0
   22.9439   29.9103   41.1675 C   0  0  0  0  0  0  0  0  0  0  0  0
   21.9632   29.5392   42.0738 C   0  0  0  0  0  0  0  0  0  0  0  0
   21.7919   30.2821   43.3612 C   0  0  0  0  0  0  0  0  0  0  0  0
   21.1614   28.4926   41.7851 N   0  0  0  0  0  0  0  0  0  0  0  0
   21.2728   27.8014   40.6236 C   0  0  0  0  0  0  0  0  0  0  0  0
   20.4950   26.8240   40.4464 O   0  0  0  0  0  0  0  0  0  0  0  0
   24.1809   29.6929   39.0499 C   0  0  0  0  0  0  0  0  0  0  0  0
  1  2  1  0
  2  3  2  0
  2  4  1  0
  4  5  2  0
  5  6  1  0
  6  7  2  0
  7  8  1  0
  8  9  2  0
  9 10  1  0
 10 11  2  0
 11 12  1  0
 12 13  2  0
 13 14  1  0
 15  1  1  1
 15 16  1  0
 16 17  1  0
 17 18  1  0
 18 19  1  0
 19 20  1  0
 18 21  1  1
 21 22  1  0
 22 23  2  0
 23 24  1  0
 24 25  1  0
 24 26  2  0
 26 27  1  0
 27 28  2  0
 22 29  1  0
 13  4  1  0
 20 15  1  0
 27 21  1  0
 12  7  1  0
M  END
>  <AAScore>  (1) 
222.35567493406265

>  <RootName>  (1) 
./4ZLY/04_DeltaGEst/trajectory_05/rank_00/lead_0303

$$$$
