confid_5
     RDKit          3D

 30 33  0  0  0  0  0  0  0  0999 V2000
   24.6900   26.1200   35.5300 N   0  0  0  0  0  0  0  0  0  0  0  0
   25.6600   25.6700   34.6600 C   0  0  0  0  0  0  0  0  0  0  0  0
   25.2400   25.0100   33.7200 O   0  0  0  0  0  0  0  0  0  0  0  0
   27.0300   26.2200   34.8800 C   0  0  0  0  0  0  0  0  0  0  0  0
   27.3500   26.7300   36.0700 N   0  0  0  0  0  0  0  0  0  0  0  0
   28.5700   27.1800   36.3300 N   0  0  0  0  0  0  0  0  0  0  0  0
   29.5300   27.1100   35.3900 C   0  0  0  0  0  0  0  0  0  0  0  0
   30.8300   27.5700   35.6500 C   0  0  0  0  0  0  0  0  0  0  0  0
   31.8500   27.5400   34.6900 C   0  0  0  0  0  0  0  0  0  0  0  0
   31.5100   27.1200   33.4000 C   0  0  0  0  0  0  0  0  0  0  0  0
   30.2200   26.6300   33.1100 C   0  0  0  0  0  0  0  0  0  0  0  0
   29.2400   26.6600   34.1000 C   0  0  0  0  0  0  0  0  0  0  0  0
   27.9300   26.2600   33.8100 C   0  0  0  0  0  0  0  0  0  0  0  0
   27.5200   25.7100   32.6100 N   0  0  0  0  0  0  0  0  0  0  0  0
   31.1529   28.0677   36.9600 N   0  0  0  0  0  0  0  0  0  0  0  0
   31.9620   27.1997   37.8331 C   0  0  0  0  0  0  0  0  0  0  0  0
   32.3469   27.8240   39.1829 C   0  0  0  0  0  0  0  0  0  0  0  0
   31.1346   28.1014   40.0807 C   0  0  0  0  0  0  0  0  0  0  0  0
   30.5564   29.4249   39.7796 N   0  0  0  0  0  0  0  0  0  0  0  0
   29.7960   29.4431   38.5164 C   0  0  0  0  0  0  0  0  0  0  0  0
   30.7447   29.4361   37.3135 C   0  0  0  0  0  0  0  0  0  0  0  0
   29.8152   30.0127   40.9217 C   0  0  0  0  0  0  0  0  0  0  0  0
   28.6678   29.1417   41.4888 C   0  0  0  0  0  0  0  0  0  0  0  0
   27.4708   29.0456   40.5767 C   0  0  0  0  0  0  0  0  0  0  0  0
   27.0750   27.8035   40.0495 C   0  0  0  0  0  0  0  0  0  0  0  0
   25.9608   27.7168   39.2083 C   0  0  0  0  0  0  0  0  0  0  0  0
   25.2270   28.8645   38.8962 C   0  0  0  0  0  0  0  0  0  0  0  0
   25.6054   30.1006   39.4270 C   0  0  0  0  0  0  0  0  0  0  0  0
   26.7178   30.1919   40.2691 C   0  0  0  0  0  0  0  0  0  0  0  0
   24.1457   28.7793   38.0828 F   0  0  0  0  0  0  0  0  0  0  0  0
  1  2  1  0
  2  3  2  0
  2  4  1  0
  4  5  2  0
  5  6  1  0
  6  7  2  0
  7  8  1  0
  8  9  2  0
  9 10  1  0
 10 11  2  0
 11 12  1  0
 12 13  2  0
 13 14  1  0
  8 15  1  0
 15 16  1  0
 16 17  1  0
 17 18  1  0
 18 19  1  0
 19 20  1  0
 20 21  1  0
 19 22  1  0
 22 23  1  0
 23 24  1  0
 24 25  2  0
 25 26  1  0
 26 27  2  0
 27 28  1  0
 28 29  2  0
 27 30  1  0
 13  4  1  0
 21 15  1  0
 29 24  1  0
 12  7  1  0
M  END
>  <AAScore>  (1) 
132.86694293899475

>  <RootName>  (1) 
./4ZLY/04_DeltaGEst/trajectory_02/rank_01/lead_0348

$$$$
