confid_0
     RDKit          3D

 29 32  0  0  0  0  0  0  0  0999 V2000
   24.5700   26.8800   35.5900 N   0  0  0  0  0  0  0  0  0  0  0  0
   25.5000   26.4000   34.6900 C   0  0  0  0  0  0  0  0  0  0  0  0
   25.1700   25.5200   33.9100 O   0  0  0  0  0  0  0  0  0  0  0  0
   26.8400   27.0200   34.7400 C   0  0  0  0  0  0  0  0  0  0  0  0
   27.3800   27.2800   35.9400 N   0  0  0  0  0  0  0  0  0  0  0  0
   28.6200   27.7400   36.0300 N   0  0  0  0  0  0  0  0  0  0  0  0
   29.3800   28.0000   34.9600 C   0  0  0  0  0  0  0  0  0  0  0  0
   30.6700   28.5000   35.1300 C   0  0  0  0  0  0  0  0  0  0  0  0
   31.5400   28.6100   34.0300 C   0  0  0  0  0  0  0  0  0  0  0  0
   31.0900   28.2200   32.7700 C   0  0  0  0  0  0  0  0  0  0  0  0
   29.8000   27.7000   32.6000 C   0  0  0  0  0  0  0  0  0  0  0  0
   28.9600   27.5500   33.7100 C   0  0  0  0  0  0  0  0  0  0  0  0
   27.6600   27.0300   33.5900 C   0  0  0  0  0  0  0  0  0  0  0  0
   27.1600   26.7400   32.3400 N   0  0  0  0  0  0  0  0  0  0  0  0
   23.3292   26.2288   35.9159 C   0  0  0  0  0  0  0  0  0  0  0  0
   22.2560   26.9920   36.2539 N   0  0  0  0  0  0  0  0  0  0  0  0
   21.0606   26.4487   36.5987 C   0  0  0  0  0  0  0  0  0  0  0  0
   20.8990   25.0564   36.6335 C   0  0  0  0  0  0  0  0  0  0  0  0
   19.5552   24.4573   36.9642 C   0  0  0  0  0  0  0  0  0  0  0  0
   18.8739   23.9593   35.7490 N   0  0  0  0  0  0  0  0  0  0  0  0
   17.5960   23.3028   36.0973 C   0  0  0  0  0  0  0  0  0  0  0  0
   16.6417   23.3712   34.9338 C   0  0  0  0  0  0  0  0  0  0  0  0
   16.1257   22.1286   34.2704 C   0  0  0  0  0  0  0  0  0  0  0  0
   16.2763   24.4619   34.5217 O   0  0  0  0  0  0  0  0  0  0  0  0
   19.7231   23.1002   34.8785 C   0  0  0  0  0  0  0  0  0  0  0  0
   20.6218   22.1073   35.6509 C   0  0  0  0  0  0  0  0  0  0  0  0
   21.8832   22.7177   36.3187 C   0  0  0  0  0  0  0  0  0  0  0  0
   21.9893   24.2320   36.2837 C   0  0  0  0  0  0  0  0  0  0  0  0
   23.2158   24.8293   35.9517 C   0  0  0  0  0  0  0  0  0  0  0  0
  1  2  1  0
  2  3  2  0
  2  4  1  0
  4  5  2  0
  5  6  1  0
  6  7  2  0
  7  8  1  0
  8  9  2  0
  9 10  1  0
 10 11  2  0
 11 12  1  0
 12 13  2  0
 13 14  1  0
  1 15  1  0
 15 16  2  0
 16 17  1  0
 17 18  2  0
 18 19  1  0
 19 20  1  0
 20 21  1  0
 21 22  1  0
 22 23  1  0
 22 24  2  0
 20 25  1  0
 25 26  1  0
 26 27  1  0
 27 28  1  0
 28 29  2  0
 13  4  1  0
 29 15  1  0
 12  7  1  0
 28 18  1  0
M  END
>  <AAScore>  (1) 
4978.242789791097

>  <RootName>  (1) 
./4ZLY/04_DeltaGEst/trajectory_05/rank_00/lead_0041

$$$$
