confid_13
     RDKit          3D

 26 29  0  0  0  0  0  0  0  0999 V2000
   24.5700   26.8800   35.5900 N   0  0  0  0  0  0  0  0  0  0  0  0
   25.5000   26.4000   34.6900 C   0  0  0  0  0  0  0  0  0  0  0  0
   25.1700   25.5200   33.9100 O   0  0  0  0  0  0  0  0  0  0  0  0
   26.8400   27.0200   34.7400 C   0  0  0  0  0  0  0  0  0  0  0  0
   27.3800   27.2800   35.9400 N   0  0  0  0  0  0  0  0  0  0  0  0
   28.6200   27.7400   36.0300 N   0  0  0  0  0  0  0  0  0  0  0  0
   29.3800   28.0000   34.9600 C   0  0  0  0  0  0  0  0  0  0  0  0
   30.6700   28.5000   35.1300 C   0  0  0  0  0  0  0  0  0  0  0  0
   31.5400   28.6100   34.0300 C   0  0  0  0  0  0  0  0  0  0  0  0
   31.0900   28.2200   32.7700 C   0  0  0  0  0  0  0  0  0  0  0  0
   29.8000   27.7000   32.6000 C   0  0  0  0  0  0  0  0  0  0  0  0
   28.9600   27.5500   33.7100 C   0  0  0  0  0  0  0  0  0  0  0  0
   27.6600   27.0300   33.5900 C   0  0  0  0  0  0  0  0  0  0  0  0
   27.1600   26.7400   32.3400 N   0  0  0  0  0  0  0  0  0  0  0  0
   23.1487   26.6965   35.4673 C   0  0  0  0  0  0  0  0  0  0  0  0
   22.3977   26.6039   36.5963 N   0  0  0  0  0  0  0  0  0  0  0  0
   21.0490   26.4534   36.5595 C   0  0  0  0  0  0  0  0  0  0  0  0
   20.3747   26.3914   35.3321 C   0  0  0  0  0  0  0  0  0  0  0  0
   18.8689   26.2645   35.3135 C   0  0  0  0  0  0  0  0  0  0  0  0
   18.1691   27.6219   35.1145 C   0  0  0  0  0  0  0  0  0  0  0  0
   18.9752   28.7298   33.8895 S   0  0  0  0  0  0  0  0  0  0  0  0
   19.2769   27.4487   32.6611 C   0  0  0  0  0  0  0  0  0  0  0  0
   18.5094   27.3403   31.7185 O   0  0  0  0  0  0  0  0  0  0  0  0
   20.4531   26.5092   32.7724 C   0  0  0  0  0  0  0  0  0  0  0  0
   21.1192   26.5359   34.1357 C   0  0  0  0  0  0  0  0  0  0  0  0
   22.5128   26.6827   34.2150 C   0  0  0  0  0  0  0  0  0  0  0  0
  1  2  1  0
  2  3  2  0
  2  4  1  0
  4  5  2  0
  5  6  1  0
  6  7  2  0
  7  8  1  0
  8  9  2  0
  9 10  1  0
 10 11  2  0
 11 12  1  0
 12 13  2  0
 13 14  1  0
  1 15  1  0
 15 16  2  0
 16 17  1  0
 17 18  2  0
 18 19  1  0
 19 20  1  0
 20 21  1  0
 21 22  1  0
 22 23  2  0
 22 24  1  0
 24 25  1  0
 25 26  2  0
 13  4  1  0
 26 15  1  0
 12  7  1  0
 25 18  1  0
M  END
>  <AAScore>  (1) 
486.4354700301925

>  <RootName>  (1) 
./4ZLY/04_DeltaGEst/trajectory_05/rank_00/lead_0258

$$$$
