confid_6
     RDKit          3D

 29 32  0  0  0  0  0  0  0  0999 V2000
   24.4800   26.1000   36.1300 N   0  0  0  0  0  0  0  0  0  0  0  0
   25.2500   26.2500   34.9900 C   0  0  0  0  0  0  0  0  0  0  0  0
   24.7400   25.7600   33.9900 O   0  0  0  0  0  0  0  0  0  0  0  0
   26.5900   26.8900   34.9600 C   0  0  0  0  0  0  0  0  0  0  0  0
   27.0600   27.2400   36.1600 N   0  0  0  0  0  0  0  0  0  0  0  0
   28.3000   27.7100   36.2400 N   0  0  0  0  0  0  0  0  0  0  0  0
   29.0500   27.9600   35.1500 C   0  0  0  0  0  0  0  0  0  0  0  0
   30.3400   28.4900   35.2600 C   0  0  0  0  0  0  0  0  0  0  0  0
   31.1100   28.8200   34.1400 C   0  0  0  0  0  0  0  0  0  0  0  0
   30.5200   28.6700   32.8800 C   0  0  0  0  0  0  0  0  0  0  0  0
   29.2900   28.0200   32.7700 C   0  0  0  0  0  0  0  0  0  0  0  0
   28.5200   27.7100   33.8900 C   0  0  0  0  0  0  0  0  0  0  0  0
   27.2700   27.0800   33.7600 C   0  0  0  0  0  0  0  0  0  0  0  0
   26.7500   26.8800   32.4900 N   0  0  0  0  0  0  0  0  0  0  0  0
   23.4691   25.0961   36.3355 C   0  0  0  0  0  0  0  0  0  0  0  0
   22.6712   25.1682   37.4340 N   0  0  0  0  0  0  0  0  0  0  0  0
   21.7154   24.2341   37.6732 C   0  0  0  0  0  0  0  0  0  0  0  0
   21.5341   23.1733   36.7807 C   0  0  0  0  0  0  0  0  0  0  0  0
   20.5225   22.0913   37.0667 C   0  0  0  0  0  0  0  0  0  0  0  0
   20.1891   21.3247   35.8471 N   0  0  0  0  0  0  0  0  0  0  0  0
   19.2558   20.2175   36.1590 C   0  0  0  0  0  0  0  0  0  0  0  0
   18.2025   20.0832   35.0585 C   0  0  0  0  0  0  0  0  0  0  0  0
   18.7935   19.7383   33.8573 F   0  0  0  0  0  0  0  0  0  0  0  0
   17.2955   19.0991   35.4073 F   0  0  0  0  0  0  0  0  0  0  0  0
   17.5277   21.2811   34.9053 F   0  0  0  0  0  0  0  0  0  0  0  0
   21.4257   20.8212   35.2146 C   0  0  0  0  0  0  0  0  0  0  0  0
   22.2336   21.9946   34.6546 C   0  0  0  0  0  0  0  0  0  0  0  0
   22.3899   23.0899   35.6704 C   0  0  0  0  0  0  0  0  0  0  0  0
   23.3237   24.0564   35.4686 N   0  0  0  0  0  0  0  0  0  0  0  0
  1  2  1  0
  2  3  2  0
  2  4  1  0
  4  5  2  0
  5  6  1  0
  6  7  2  0
  7  8  1  0
  8  9  2  0
  9 10  1  0
 10 11  2  0
 11 12  1  0
 12 13  2  0
 13 14  1  0
  1 15  1  0
 15 16  2  0
 16 17  1  0
 17 18  2  0
 18 19  1  0
 19 20  1  0
 20 21  1  0
 21 22  1  0
 22 23  1  0
 22 24  1  0
 22 25  1  0
 20 26  1  0
 26 27  1  0
 27 28  1  0
 28 29  2  0
 13  4  1  0
 29 15  1  0
 12  7  1  0
 28 18  1  0
M  END
>  <AAScore>  (1) 
289.85317387786574

>  <RootName>  (1) 
./4ZLY/04_DeltaGEst/trajectory_00/rank_01/lead_0082

$$$$
