confid_0
     RDKit          3D

 27 29  0  0  0  0  0  0  0  0999 V2000
   24.5700   26.8800   35.5900 N   0  0  0  0  0  0  0  0  0  0  0  0
   25.5000   26.4000   34.6900 C   0  0  0  0  0  0  0  0  0  0  0  0
   25.1700   25.5200   33.9100 O   0  0  0  0  0  0  0  0  0  0  0  0
   26.8400   27.0200   34.7400 C   0  0  0  0  0  0  0  0  0  0  0  0
   27.3800   27.2800   35.9400 N   0  0  0  0  0  0  0  0  0  0  0  0
   28.6200   27.7400   36.0300 N   0  0  0  0  0  0  0  0  0  0  0  0
   29.3800   28.0000   34.9600 C   0  0  0  0  0  0  0  0  0  0  0  0
   30.6700   28.5000   35.1300 C   0  0  0  0  0  0  0  0  0  0  0  0
   31.5400   28.6100   34.0300 C   0  0  0  0  0  0  0  0  0  0  0  0
   31.0900   28.2200   32.7700 C   0  0  0  0  0  0  0  0  0  0  0  0
   29.8000   27.7000   32.6000 C   0  0  0  0  0  0  0  0  0  0  0  0
   28.9600   27.5500   33.7100 C   0  0  0  0  0  0  0  0  0  0  0  0
   27.6600   27.0300   33.5900 C   0  0  0  0  0  0  0  0  0  0  0  0
   27.1600   26.7400   32.3400 N   0  0  0  0  0  0  0  0  0  0  0  0
   33.1542   29.2768   34.2485 S   0  0  0  0  0  6  0  0  0  0  0  0
   33.8216   28.5739   35.3968 O   0  0  0  0  0  0  0  0  0  0  0  0
   33.9757   29.0540   33.0095 O   0  0  0  0  0  0  0  0  0  0  0  0
   33.0824   31.0269   34.5911 C   0  0  0  0  0  0  0  0  0  0  0  0
   32.3696   31.7280   33.4975 N   0  0  0  0  0  0  0  0  0  0  0  0
   30.9844   32.0750   33.8757 C   0  0  0  0  0  0  0  0  0  0  0  0
   30.1304   32.5516   32.6806 C   0  0  0  0  0  0  0  0  0  0  0  0
   33.1192   32.8907   32.9685 C   0  0  0  0  0  0  0  0  0  0  0  0
   33.7518   32.5293   31.6216 C   0  0  0  0  0  0  0  0  0  0  0  0
   32.8451   31.6850   30.7020 C   0  0  2  0  0  0  0  0  0  0  0  0
   33.4911   31.5469   29.4843 F   0  0  0  0  0  0  0  0  0  0  0  0
   31.4482   32.3014   30.4577 C   0  0  0  0  0  0  0  0  0  0  0  0
   30.3361   31.7472   31.3823 C   0  0  0  0  0  0  0  0  0  0  0  0
  1  2  1  0
  2  3  2  0
  2  4  1  0
  4  5  2  0
  5  6  1  0
  6  7  2  0
  7  8  1  0
  8  9  2  0
  9 10  1  0
 10 11  2  0
 11 12  1  0
 12 13  2  0
 13 14  1  0
  9 15  1  0
 15 16  2  0
 15 17  2  0
 15 18  1  0
 18 19  1  0
 19 20  1  0
 20 21  1  0
 19 22  1  0
 22 23  1  0
 23 24  1  0
 24 25  1  6
 24 26  1  0
 26 27  1  0
 13  4  1  0
 27 21  1  0
 12  7  1  0
M  END
>  <AAScore>  (1) 
-2.980839724874263

>  <RootName>  (1) 
./4ZLY/04_DeltaGEst/trajectory_05/rank_01/lead_0327

$$$$
