confid_6
     RDKit          3D

 28 31  0  0  0  0  0  0  0  0999 V2000
   24.6900   26.1200   35.5300 N   0  0  0  0  0  0  0  0  0  0  0  0
   25.6600   25.6700   34.6600 C   0  0  0  0  0  0  0  0  0  0  0  0
   25.2400   25.0100   33.7200 O   0  0  0  0  0  0  0  0  0  0  0  0
   27.0300   26.2200   34.8800 C   0  0  0  0  0  0  0  0  0  0  0  0
   27.3500   26.7300   36.0700 N   0  0  0  0  0  0  0  0  0  0  0  0
   28.5700   27.1800   36.3300 N   0  0  0  0  0  0  0  0  0  0  0  0
   29.5300   27.1100   35.3900 C   0  0  0  0  0  0  0  0  0  0  0  0
   30.8300   27.5700   35.6500 C   0  0  0  0  0  0  0  0  0  0  0  0
   31.8500   27.5400   34.6900 C   0  0  0  0  0  0  0  0  0  0  0  0
   31.5100   27.1200   33.4000 C   0  0  0  0  0  0  0  0  0  0  0  0
   30.2200   26.6300   33.1100 C   0  0  0  0  0  0  0  0  0  0  0  0
   29.2400   26.6600   34.1000 C   0  0  0  0  0  0  0  0  0  0  0  0
   27.9300   26.2600   33.8100 C   0  0  0  0  0  0  0  0  0  0  0  0
   27.5200   25.7100   32.6100 N   0  0  0  0  0  0  0  0  0  0  0  0
   31.1409   28.0769   36.9580 N   0  0  0  0  0  0  0  0  0  0  0  0
   31.3378   27.1289   38.0662 C   0  0  0  0  0  0  0  0  0  0  0  0
   30.7067   27.6714   39.3554 C   0  0  0  0  0  0  0  0  0  0  0  0
   31.0532   29.1165   39.5319 C   0  0  0  0  0  0  0  0  0  0  0  0
   30.9404   30.0060   40.9520 S   0  0  0  0  0  0  0  0  0  0  0  0
   31.3640   31.4859   40.2560 C   0  0  0  0  0  0  0  0  0  0  0  0
   31.6033   31.2915   38.8959 C   0  0  0  0  0  0  0  0  0  0  0  0
   31.4040   29.9650   38.4926 C   0  0  0  0  0  0  0  0  0  0  0  0
   31.6128   29.4652   37.0931 C   0  0  0  0  0  0  0  0  0  0  0  0
   31.5103   32.7513   41.0000 C   0  0  0  0  0  0  0  0  0  0  0  0
   31.7050   32.7013   42.2450 O   0  0  0  0  0  0  0  0  0  0  0  0
   31.4485   34.0339   40.3439 N   0  0  0  0  0  0  0  0  0  0  0  0
   30.5223   34.2847   39.2364 C   0  0  0  0  0  0  0  0  0  0  0  0
   32.2707   35.1343   40.8481 C   0  0  0  0  0  0  0  0  0  0  0  0
  1  2  1  0
  2  3  2  0
  2  4  1  0
  4  5  2  0
  5  6  1  0
  6  7  2  0
  7  8  1  0
  8  9  2  0
  9 10  1  0
 10 11  2  0
 11 12  1  0
 12 13  2  0
 13 14  1  0
  8 15  1  0
 15 16  1  0
 16 17  1  0
 17 18  1  0
 18 19  1  0
 19 20  1  0
 20 21  2  0
 21 22  1  0
 22 23  1  0
 20 24  1  0
 24 25  2  0
 24 26  1  0
 26 27  1  0
 26 28  1  0
 13  4  1  0
 23 15  1  0
 12  7  1  0
 22 18  2  0
M  END
>  <AAScore>  (1) 
-6.668848368984624

>  <RootName>  (1) 
./4ZLY/04_DeltaGEst/trajectory_02/rank_01/lead_0009

$$$$
