confid_15
     RDKit          3D

 28 31  0  0  0  0  0  0  0  0999 V2000
   24.6900   26.1200   35.5300 N   0  0  0  0  0  0  0  0  0  0  0  0
   25.6600   25.6700   34.6600 C   0  0  0  0  0  0  0  0  0  0  0  0
   25.2400   25.0100   33.7200 O   0  0  0  0  0  0  0  0  0  0  0  0
   27.0300   26.2200   34.8800 C   0  0  0  0  0  0  0  0  0  0  0  0
   27.3500   26.7300   36.0700 N   0  0  0  0  0  0  0  0  0  0  0  0
   28.5700   27.1800   36.3300 N   0  0  0  0  0  0  0  0  0  0  0  0
   29.5300   27.1100   35.3900 C   0  0  0  0  0  0  0  0  0  0  0  0
   30.8300   27.5700   35.6500 C   0  0  0  0  0  0  0  0  0  0  0  0
   31.8500   27.5400   34.6900 C   0  0  0  0  0  0  0  0  0  0  0  0
   31.5100   27.1200   33.4000 C   0  0  0  0  0  0  0  0  0  0  0  0
   30.2200   26.6300   33.1100 C   0  0  0  0  0  0  0  0  0  0  0  0
   29.2400   26.6600   34.1000 C   0  0  0  0  0  0  0  0  0  0  0  0
   27.9300   26.2600   33.8100 C   0  0  0  0  0  0  0  0  0  0  0  0
   27.5200   25.7100   32.6100 N   0  0  0  0  0  0  0  0  0  0  0  0
   23.3336   26.4255   35.1578 C   0  0  0  0  0  0  0  0  0  0  0  0
   22.3532   26.3081   36.0893 N   0  0  0  0  0  0  0  0  0  0  0  0
   21.0570   26.6021   35.8167 C   0  0  0  0  0  0  0  0  0  0  0  0
   20.6786   27.0624   34.5449 C   0  0  0  0  0  0  0  0  0  0  0  0
   19.2102   27.3300   34.2814 C   0  0  0  0  0  0  0  0  0  0  0  0
   18.5034   26.1904   33.6366 N   0  0  0  0  0  0  0  0  0  0  0  0
   17.1852   26.6344   33.1435 C   0  0  0  0  0  0  0  0  0  0  0  0
   19.2909   25.4220   32.6245 C   0  0  1  0  0  0  0  0  0  0  0  0
   18.5681   24.1308   32.2077 C   0  0  0  0  0  0  0  0  0  0  0  0
   19.7034   26.2457   31.3780 C   0  0  0  0  0  0  0  0  0  0  0  0
   20.0669   27.5737   31.7040 O   0  0  0  0  0  0  0  0  0  0  0  0
   21.4153   27.6748   32.1219 C   0  0  0  0  0  0  0  0  0  0  0  0
   21.6780   27.1879   33.5406 C   0  0  0  0  0  0  0  0  0  0  0  0
   23.0092   26.8905   33.8743 C   0  0  0  0  0  0  0  0  0  0  0  0
  1  2  1  0
  2  3  2  0
  2  4  1  0
  4  5  2  0
  5  6  1  0
  6  7  2  0
  7  8  1  0
  8  9  2  0
  9 10  1  0
 10 11  2  0
 11 12  1  0
 12 13  2  0
 13 14  1  0
  1 15  1  0
 15 16  2  0
 16 17  1  0
 17 18  2  0
 18 19  1  0
 19 20  1  0
 20 21  1  0
 20 22  1  0
 22 23  1  6
 22 24  1  0
 24 25  1  0
 25 26  1  0
 26 27  1  0
 27 28  2  0
 13  4  1  0
 28 15  1  0
 12  7  1  0
 27 18  1  0
M  END
>  <AAScore>  (1) 
4490.51507708866

>  <RootName>  (1) 
./4ZLY/04_DeltaGEst/trajectory_02/rank_00/lead_0498

$$$$
