confid_12
     RDKit          3D

 27 30  0  0  0  0  0  0  0  0999 V2000
   24.6900   26.1200   35.5300 N   0  0  0  0  0  0  0  0  0  0  0  0
   25.6600   25.6700   34.6600 C   0  0  0  0  0  0  0  0  0  0  0  0
   25.2400   25.0100   33.7200 O   0  0  0  0  0  0  0  0  0  0  0  0
   27.0300   26.2200   34.8800 C   0  0  0  0  0  0  0  0  0  0  0  0
   27.3500   26.7300   36.0700 N   0  0  0  0  0  0  0  0  0  0  0  0
   28.5700   27.1800   36.3300 N   0  0  0  0  0  0  0  0  0  0  0  0
   29.5300   27.1100   35.3900 C   0  0  0  0  0  0  0  0  0  0  0  0
   30.8300   27.5700   35.6500 C   0  0  0  0  0  0  0  0  0  0  0  0
   31.8500   27.5400   34.6900 C   0  0  0  0  0  0  0  0  0  0  0  0
   31.5100   27.1200   33.4000 C   0  0  0  0  0  0  0  0  0  0  0  0
   30.2200   26.6300   33.1100 C   0  0  0  0  0  0  0  0  0  0  0  0
   29.2400   26.6600   34.1000 C   0  0  0  0  0  0  0  0  0  0  0  0
   27.9300   26.2600   33.8100 C   0  0  0  0  0  0  0  0  0  0  0  0
   27.5200   25.7100   32.6100 N   0  0  0  0  0  0  0  0  0  0  0  0
   23.5272   25.3555   35.8993 C   0  0  0  0  0  0  0  0  0  0  0  0
   23.4000   24.0553   35.5159 N   0  0  0  0  0  0  0  0  0  0  0  0
   22.3297   23.2986   35.8718 C   0  0  0  0  0  0  0  0  0  0  0  0
   21.3090   23.8423   36.6666 C   0  0  0  0  0  0  0  0  0  0  0  0
   20.1398   22.9868   37.0734 C   0  0  0  0  0  0  0  0  0  0  0  0
   18.9349   23.3489   36.2526 C   0  0  0  0  0  0  0  0  0  0  0  0
   18.9134   23.0493   35.0680 O   0  0  0  0  0  0  0  0  0  0  0  0
   17.7327   24.0291   36.8577 C   0  0  0  0  0  0  0  0  0  0  0  0
   18.0758   25.1412   37.8634 C   0  0  0  0  0  0  0  0  0  0  0  0
   19.1253   26.1375   37.3484 C   0  0  0  0  0  0  0  0  0  0  0  0
   20.4241   25.8084   37.8410 O   0  0  0  0  0  0  0  0  0  0  0  0
   21.4070   25.1926   37.0596 C   0  0  0  0  0  0  0  0  0  0  0  0
   22.5291   25.9389   36.6892 C   0  0  0  0  0  0  0  0  0  0  0  0
  1  2  1  0
  2  3  2  0
  2  4  1  0
  4  5  2  0
  5  6  1  0
  6  7  2  0
  7  8  1  0
  8  9  2  0
  9 10  1  0
 10 11  2  0
 11 12  1  0
 12 13  2  0
 13 14  1  0
  1 15  1  0
 15 16  2  0
 16 17  1  0
 17 18  2  0
 18 19  1  0
 19 20  1  0
 20 21  2  0
 20 22  1  0
 22 23  1  0
 23 24  1  0
 24 25  1  0
 25 26  1  0
 26 27  2  0
 13  4  1  0
 27 15  1  0
 12  7  1  0
 26 18  1  0
M  END
>  <AAScore>  (1) 
5056.356154125476

>  <RootName>  (1) 
./4ZLY/04_DeltaGEst/trajectory_02/rank_00/lead_0228

$$$$
