confid_2
     RDKit          3D

 24 26  0  0  0  0  0  0  0  0999 V2000
   24.4800   26.1000   36.1300 N   0  0  0  0  0  0  0  0  0  0  0  0
   25.2500   26.2500   34.9900 C   0  0  0  0  0  0  0  0  0  0  0  0
   24.7400   25.7600   33.9900 O   0  0  0  0  0  0  0  0  0  0  0  0
   26.5900   26.8900   34.9600 C   0  0  0  0  0  0  0  0  0  0  0  0
   27.0600   27.2400   36.1600 N   0  0  0  0  0  0  0  0  0  0  0  0
   28.3000   27.7100   36.2400 N   0  0  0  0  0  0  0  0  0  0  0  0
   29.0500   27.9600   35.1500 C   0  0  0  0  0  0  0  0  0  0  0  0
   30.3400   28.4900   35.2600 C   0  0  0  0  0  0  0  0  0  0  0  0
   31.1100   28.8200   34.1400 C   0  0  0  0  0  0  0  0  0  0  0  0
   30.5200   28.6700   32.8800 C   0  0  0  0  0  0  0  0  0  0  0  0
   29.2900   28.0200   32.7700 C   0  0  0  0  0  0  0  0  0  0  0  0
   28.5200   27.7100   33.8900 C   0  0  0  0  0  0  0  0  0  0  0  0
   27.2700   27.0800   33.7600 C   0  0  0  0  0  0  0  0  0  0  0  0
   26.7500   26.8800   32.4900 N   0  0  0  0  0  0  0  0  0  0  0  0
   23.0411   26.0680   36.1535 C   0  0  0  0  0  0  0  0  0  0  0  0
   22.2187   26.6088   35.1482 C   0  0  0  0  0  0  0  0  0  0  0  0
   20.8689   26.4808   35.4346 C   0  0  0  0  0  0  0  0  0  0  0  0
   19.5562   27.0338   34.4134 S   0  0  0  0  0  6  0  0  0  0  0  0
   19.7060   28.5089   34.1676 O   0  0  0  0  0  0  0  0  0  0  0  0
   18.2448   26.7799   35.1027 O   0  0  0  0  0  0  0  0  0  0  0  0
   19.5993   26.1419   32.8676 C   0  0  0  0  0  0  0  0  0  0  0  0
   18.4715   26.5908   31.9473 C   0  0  0  0  0  0  0  0  0  0  0  0
   20.6883   25.7230   36.9226 S   0  0  0  0  0  0  0  0  0  0  0  0
   22.3325   25.5426   37.2306 C   0  0  0  0  0  0  0  0  0  0  0  0
  1  2  1  0
  2  3  2  0
  2  4  1  0
  4  5  2  0
  5  6  1  0
  6  7  2  0
  7  8  1  0
  8  9  2  0
  9 10  1  0
 10 11  2  0
 11 12  1  0
 12 13  2  0
 13 14  1  0
  1 15  1  0
 15 16  1  0
 16 17  2  0
 17 18  1  0
 18 19  2  0
 18 20  2  0
 18 21  1  0
 21 22  1  0
 17 23  1  0
 23 24  1  0
 13  4  1  0
 24 15  2  0
 12  7  1  0
M  END
>  <AAScore>  (1) 
91.31174118113844

>  <RootName>  (1) 
./4ZLY/04_DeltaGEst/trajectory_00/rank_00/lead_0111

$$$$
