confid_13
     RDKit          3D

 27 30  0  0  0  0  0  0  0  0999 V2000
   24.2000   26.2400   35.6900 N   0  0  0  0  0  0  0  0  0  0  0  0
   24.8500   26.2800   34.4800 C   0  0  0  0  0  0  0  0  0  0  0  0
   24.3100   25.7400   33.5400 O   0  0  0  0  0  0  0  0  0  0  0  0
   26.1800   26.9700   34.4700 C   0  0  0  0  0  0  0  0  0  0  0  0
   26.6500   27.6000   35.5500 N   0  0  0  0  0  0  0  0  0  0  0  0
   27.7900   28.2700   35.6200 N   0  0  0  0  0  0  0  0  0  0  0  0
   28.5400   28.3000   34.5100 C   0  0  0  0  0  0  0  0  0  0  0  0
   29.7700   28.9400   34.5600 C   0  0  0  0  0  0  0  0  0  0  0  0
   30.7000   28.8900   33.5000 C   0  0  0  0  0  0  0  0  0  0  0  0
   30.3700   28.1400   32.3700 C   0  0  0  0  0  0  0  0  0  0  0  0
   29.1200   27.5200   32.2800 C   0  0  0  0  0  0  0  0  0  0  0  0
   28.2100   27.6100   33.3300 C   0  0  0  0  0  0  0  0  0  0  0  0
   26.9700   26.9700   33.3100 C   0  0  0  0  0  0  0  0  0  0  0  0
   26.5300   26.2400   32.2200 N   0  0  0  0  0  0  0  0  0  0  0  0
   30.1379   29.6714   35.7436 N   0  0  0  0  0  0  0  0  0  0  0  0
   31.2302   29.1808   36.5917 C   0  0  0  0  0  0  0  0  0  0  0  0
   30.6818   28.5029   37.8523 C   0  0  0  0  0  0  0  0  0  0  0  0
   29.5664   29.2512   38.4485 N   0  0  0  0  0  0  0  0  0  0  0  0
   29.6245   30.6812   38.5665 C   0  0  0  0  0  0  0  0  0  0  0  0
   29.6996   31.2699   39.8382 C   0  0  0  0  0  0  0  0  0  0  0  0
   29.7041   32.6592   39.9736 C   0  0  0  0  0  0  0  0  0  0  0  0
   29.6180   33.4730   38.8431 C   0  0  0  0  0  0  0  0  0  0  0  0
   29.5337   32.8988   37.5723 C   0  0  0  0  0  0  0  0  0  0  0  0
   29.5506   31.5019   37.4178 C   0  0  0  0  0  0  0  0  0  0  0  0
   29.4711   30.9107   36.0601 C   0  0  0  0  0  0  0  0  0  0  0  0
   28.8325   31.5214   35.1592 O   0  0  0  0  0  0  0  0  0  0  0  0
   28.3763   28.5538   38.9387 C   0  0  0  0  0  0  0  0  0  0  0  0
  1  2  1  0
  2  3  2  0
  2  4  1  0
  4  5  2  0
  5  6  1  0
  6  7  2  0
  7  8  1  0
  8  9  2  0
  9 10  1  0
 10 11  2  0
 11 12  1  0
 12 13  2  0
 13 14  1  0
  8 15  1  0
 15 16  1  0
 16 17  1  0
 17 18  1  0
 18 19  1  0
 19 20  2  0
 20 21  1  0
 21 22  2  0
 22 23  1  0
 23 24  2  0
 24 25  1  0
 25 26  2  0
 18 27  1  0
 13  4  1  0
 25 15  1  0
 12  7  1  0
 24 19  1  0
M  END
>  <AAScore>  (1) 
8.464472870240547

>  <RootName>  (1) 
./4ZLY/04_DeltaGEst/trajectory_04/rank_01/lead_0308

$$$$
