confid_10
     RDKit          3D

 28 31  0  0  0  0  0  0  0  0999 V2000
   24.6900   26.1200   35.5300 N   0  0  0  0  0  0  0  0  0  0  0  0
   25.6600   25.6700   34.6600 C   0  0  0  0  0  0  0  0  0  0  0  0
   25.2400   25.0100   33.7200 O   0  0  0  0  0  0  0  0  0  0  0  0
   27.0300   26.2200   34.8800 C   0  0  0  0  0  0  0  0  0  0  0  0
   27.3500   26.7300   36.0700 N   0  0  0  0  0  0  0  0  0  0  0  0
   28.5700   27.1800   36.3300 N   0  0  0  0  0  0  0  0  0  0  0  0
   29.5300   27.1100   35.3900 C   0  0  0  0  0  0  0  0  0  0  0  0
   30.8300   27.5700   35.6500 C   0  0  0  0  0  0  0  0  0  0  0  0
   31.8500   27.5400   34.6900 C   0  0  0  0  0  0  0  0  0  0  0  0
   31.5100   27.1200   33.4000 C   0  0  0  0  0  0  0  0  0  0  0  0
   30.2200   26.6300   33.1100 C   0  0  0  0  0  0  0  0  0  0  0  0
   29.2400   26.6600   34.1000 C   0  0  0  0  0  0  0  0  0  0  0  0
   27.9300   26.2600   33.8100 C   0  0  0  0  0  0  0  0  0  0  0  0
   27.5200   25.7100   32.6100 N   0  0  0  0  0  0  0  0  0  0  0  0
   31.1387   28.0787   36.9539 N   0  0  0  0  0  0  0  0  0  0  0  0
   31.0476   29.5318   37.1754 C   0  0  0  0  0  0  0  0  0  0  0  0
   31.1672   29.9010   38.6615 C   0  0  0  0  0  0  0  0  0  0  0  0
   30.4022   28.9534   39.4786 N   0  0  0  0  0  0  0  0  0  0  0  0
   29.3103   29.4074   40.3451 C   0  0  0  0  0  0  0  0  0  0  0  0
   27.9979   29.1956   39.6554 C   0  0  0  0  0  0  0  0  0  0  0  0
   27.1394   28.1268   39.8384 C   0  0  0  0  0  0  0  0  0  0  0  0
   26.1396   28.2708   38.8969 C   0  0  0  0  0  0  0  0  0  0  0  0
   26.3615   29.3776   38.1607 N   0  0  0  0  0  0  0  0  0  0  0  0
   25.5959   29.8008   36.9949 C   0  0  0  0  0  0  0  0  0  0  0  0
   27.5031   29.9384   38.6017 C   0  0  0  0  0  0  0  0  0  0  0  0
   30.6343   27.5541   39.2574 C   0  0  0  0  0  0  0  0  0  0  0  0
   30.1997   26.6887   40.0644 O   0  0  0  0  0  0  0  0  0  0  0  0
   31.4109   27.1386   38.0498 C   0  0  0  0  0  0  0  0  0  0  0  0
  1  2  1  0
  2  3  2  0
  2  4  1  0
  4  5  2  0
  5  6  1  0
  6  7  2  0
  7  8  1  0
  8  9  2  0
  9 10  1  0
 10 11  2  0
 11 12  1  0
 12 13  2  0
 13 14  1  0
  8 15  1  0
 15 16  1  0
 16 17  1  0
 17 18  1  0
 18 19  1  0
 19 20  1  0
 20 21  1  0
 21 22  2  0
 22 23  1  0
 23 24  1  0
 23 25  1  0
 18 26  1  0
 26 27  2  0
 26 28  1  0
 13  4  1  0
 28 15  1  0
 12  7  1  0
 25 20  2  0
M  END
>  <AAScore>  (1) 
1.1543850537497211

>  <RootName>  (1) 
./4ZLY/04_DeltaGEst/trajectory_02/rank_01/lead_0148

$$$$
