confid_5
     RDKit          3D

 28 31  0  0  0  0  0  0  0  0999 V2000
   25.3300   26.2600   34.7600 N   0  0  0  0  0  0  0  0  0  0  0  0
   26.1200   25.9200   33.6900 C   0  0  0  0  0  0  0  0  0  0  0  0
   25.6300   25.1100   32.9400 O   0  0  0  0  0  0  0  0  0  0  0  0
   27.5200   26.3800   33.4600 C   0  0  0  0  0  0  0  0  0  0  0  0
   28.1600   26.6300   34.6100 N   0  0  0  0  0  0  0  0  0  0  0  0
   29.4800   26.8500   34.5700 N   0  0  0  0  0  0  0  0  0  0  0  0
   30.1900   26.7800   33.4400 C   0  0  0  0  0  0  0  0  0  0  0  0
   31.5600   27.0500   33.5000 C   0  0  0  0  0  0  0  0  0  0  0  0
   32.2700   27.2400   32.3100 C   0  0  0  0  0  0  0  0  0  0  0  0
   31.6100   27.2500   31.0800 C   0  0  0  0  0  0  0  0  0  0  0  0
   30.2700   26.8700   31.0600 C   0  0  0  0  0  0  0  0  0  0  0  0
   29.5100   26.6900   32.2300 C   0  0  0  0  0  0  0  0  0  0  0  0
   28.1400   26.4100   32.2000 C   0  0  0  0  0  0  0  0  0  0  0  0
   27.4300   26.1300   31.0500 N   0  0  0  0  0  0  0  0  0  0  0  0
   27.3625   24.7301   30.5834 C   0  0  0  0  0  0  0  0  0  0  0  0
   28.1288   24.4839   29.2716 C   0  0  0  0  0  0  0  0  0  0  0  0
   27.4886   25.1097   28.1039 N   0  0  0  0  0  0  0  0  0  0  0  0
   28.3255   25.7412   27.1173 C   0  0  0  0  0  0  0  0  0  0  0  0
   29.2154   24.9523   26.3704 C   0  0  0  0  0  0  0  0  0  0  0  0
   30.0328   25.5320   25.3983 C   0  0  0  0  0  0  0  0  0  0  0  0
   29.9710   26.9053   25.1620 C   0  0  0  0  0  0  0  0  0  0  0  0
   29.0937   27.7039   25.8995 C   0  0  0  0  0  0  0  0  0  0  0  0
   28.2559   27.1330   26.8736 C   0  0  0  0  0  0  0  0  0  0  0  0
   27.3879   28.0264   27.7154 C   0  0  0  0  0  0  0  0  0  0  0  0
   28.0151   28.1763   29.0330 N   0  0  0  0  0  0  0  0  0  0  0  0
   27.0378   28.4119   30.0996 C   0  0  0  0  0  0  0  0  0  0  0  0
   26.4144   27.0953   30.5842 C   0  0  0  0  0  0  0  0  0  0  0  0
   26.1690   24.6428   27.6610 C   0  0  0  0  0  0  0  0  0  0  0  0
  1  2  1  0
  2  3  2  0
  2  4  1  0
  4  5  2  0
  5  6  1  0
  6  7  2  0
  7  8  1  0
  8  9  2  0
  9 10  1  0
 10 11  2  0
 11 12  1  0
 12 13  2  0
 13 14  1  0
 14 15  1  0
 15 16  1  0
 16 17  1  0
 17 18  1  0
 18 19  2  0
 19 20  1  0
 20 21  2  0
 21 22  1  0
 22 23  2  0
 23 24  1  0
 24 25  1  0
 25 26  1  0
 26 27  1  0
 17 28  1  0
 13  4  1  0
 27 14  1  0
 12  7  1  0
 23 18  1  0
M  END
>  <AAScore>  (1) 
4.478643547089117

>  <RootName>  (1) 
./4ZLY/04_DeltaGEst/trajectory_03/rank_01/lead_0160

$$$$
