confid_1
     RDKit          3D

 26 29  0  0  0  0  0  0  0  0999 V2000
   25.3300   26.2600   34.7600 N   0  0  0  0  0  0  0  0  0  0  0  0
   26.1200   25.9200   33.6900 C   0  0  0  0  0  0  0  0  0  0  0  0
   25.6300   25.1100   32.9400 O   0  0  0  0  0  0  0  0  0  0  0  0
   27.5200   26.3800   33.4600 C   0  0  0  0  0  0  0  0  0  0  0  0
   28.1600   26.6300   34.6100 N   0  0  0  0  0  0  0  0  0  0  0  0
   29.4800   26.8500   34.5700 N   0  0  0  0  0  0  0  0  0  0  0  0
   30.1900   26.7800   33.4400 C   0  0  0  0  0  0  0  0  0  0  0  0
   31.5600   27.0500   33.5000 C   0  0  0  0  0  0  0  0  0  0  0  0
   32.2700   27.2400   32.3100 C   0  0  0  0  0  0  0  0  0  0  0  0
   31.6100   27.2500   31.0800 C   0  0  0  0  0  0  0  0  0  0  0  0
   30.2700   26.8700   31.0600 C   0  0  0  0  0  0  0  0  0  0  0  0
   29.5100   26.6900   32.2300 C   0  0  0  0  0  0  0  0  0  0  0  0
   28.1400   26.4100   32.2000 C   0  0  0  0  0  0  0  0  0  0  0  0
   27.4300   26.1300   31.0500 N   0  0  0  0  0  0  0  0  0  0  0  0
   23.9549   25.8822   34.9525 C   0  0  0  0  0  0  0  0  0  0  0  0
   23.2226   25.1769   34.0574 N   0  0  0  0  0  0  0  0  0  0  0  0
   21.9550   24.9810   34.5055 C   0  0  0  0  0  0  0  0  0  0  0  0
   20.9002   24.2904   33.7102 C   0  0  0  0  0  0  0  0  0  0  0  0
   19.8541   23.6725   34.6482 C   0  0  0  0  0  0  0  0  0  0  0  0
   19.3724   24.6520   35.6478 N   0  0  0  0  0  0  0  0  0  0  0  0
   20.3290   25.4979   36.3935 C   0  0  0  0  0  0  0  0  0  0  0  0
   21.6715   25.5444   35.7348 C   0  0  0  0  0  0  0  0  0  0  0  0
   23.0516   26.3101   36.3124 S   0  0  0  0  0  0  0  0  0  0  0  0
   18.0011   24.6265   36.1081 C   0  0  0  0  0  0  0  0  0  0  0  0
   17.5861   25.5258   36.8895 O   0  0  0  0  0  0  0  0  0  0  0  0
   17.0359   23.5625   35.6764 C   0  0  0  0  0  0  0  0  0  0  0  0
  1  2  1  0
  2  3  2  0
  2  4  1  0
  4  5  2  0
  5  6  1  0
  6  7  2  0
  7  8  1  0
  8  9  2  0
  9 10  1  0
 10 11  2  0
 11 12  1  0
 12 13  2  0
 13 14  1  0
  1 15  1  0
 15 16  2  0
 16 17  1  0
 17 18  1  0
 18 19  1  0
 19 20  1  0
 20 21  1  0
 21 22  1  0
 22 23  1  0
 20 24  1  0
 24 25  2  0
 24 26  1  0
 13  4  1  0
 23 15  1  0
 12  7  1  0
 22 17  2  0
M  END
>  <AAScore>  (1) 
4548.102349467524

>  <RootName>  (1) 
./4ZLY/04_DeltaGEst/trajectory_03/rank_00/lead_0455

$$$$
