confid_3
     RDKit          3D

 28 31  0  0  0  0  0  0  0  0999 V2000
   24.2000   26.2400   35.6900 N   0  0  0  0  0  0  0  0  0  0  0  0
   24.8500   26.2800   34.4800 C   0  0  0  0  0  0  0  0  0  0  0  0
   24.3100   25.7400   33.5400 O   0  0  0  0  0  0  0  0  0  0  0  0
   26.1800   26.9700   34.4700 C   0  0  0  0  0  0  0  0  0  0  0  0
   26.6500   27.6000   35.5500 N   0  0  0  0  0  0  0  0  0  0  0  0
   27.7900   28.2700   35.6200 N   0  0  0  0  0  0  0  0  0  0  0  0
   28.5400   28.3000   34.5100 C   0  0  0  0  0  0  0  0  0  0  0  0
   29.7700   28.9400   34.5600 C   0  0  0  0  0  0  0  0  0  0  0  0
   30.7000   28.8900   33.5000 C   0  0  0  0  0  0  0  0  0  0  0  0
   30.3700   28.1400   32.3700 C   0  0  0  0  0  0  0  0  0  0  0  0
   29.1200   27.5200   32.2800 C   0  0  0  0  0  0  0  0  0  0  0  0
   28.2100   27.6100   33.3300 C   0  0  0  0  0  0  0  0  0  0  0  0
   26.9700   26.9700   33.3100 C   0  0  0  0  0  0  0  0  0  0  0  0
   26.5300   26.2400   32.2200 N   0  0  0  0  0  0  0  0  0  0  0  0
   30.1402   29.6788   35.7405 N   0  0  0  0  0  0  0  0  0  0  0  0
   31.2112   29.1541   36.6051 C   0  0  0  0  0  0  0  0  0  0  0  0
   32.3341   30.1781   36.8639 C   0  0  0  0  0  0  0  0  0  0  0  0
   32.5039   31.1555   35.7218 C   0  0  0  0  0  0  0  0  0  0  0  0
   33.6470   31.0961   34.9075 C   0  0  0  0  0  0  0  0  0  0  0  0
   33.7864   31.9599   33.8044 C   0  0  0  0  0  0  0  0  0  0  0  0
   34.9112   31.9312   32.9652 O   0  0  0  0  0  0  0  0  0  0  0  0
   36.0148   31.0455   33.1276 C   0  0  0  0  0  0  0  0  0  0  0  0
   32.7698   32.8794   33.5223 C   0  0  0  0  0  0  0  0  0  0  0  0
   31.6269   32.9421   34.3228 C   0  0  0  0  0  0  0  0  0  0  0  0
   31.4844   32.0897   35.4275 C   0  0  0  0  0  0  0  0  0  0  0  0
   30.2259   32.1378   36.2660 C   0  0  0  0  0  0  0  0  0  0  0  0
   29.3599   30.8705   36.1194 C   0  0  0  0  0  0  0  0  0  0  0  0
   32.8849   33.7114   32.4564 F   0  0  0  0  0  0  0  0  0  0  0  0
  1  2  1  0
  2  3  2  0
  2  4  1  0
  4  5  2  0
  5  6  1  0
  6  7  2  0
  7  8  1  0
  8  9  2  0
  9 10  1  0
 10 11  2  0
 11 12  1  0
 12 13  2  0
 13 14  1  0
  8 15  1  0
 15 16  1  0
 16 17  1  0
 17 18  1  0
 18 19  2  0
 19 20  1  0
 20 21  1  0
 21 22  1  0
 20 23  2  0
 23 24  1  0
 24 25  2  0
 25 26  1  0
 26 27  1  0
 23 28  1  0
 13  4  1  0
 27 15  1  0
 12  7  1  0
 25 18  1  0
M  END
>  <AAScore>  (1) 
-7.014378428989451

>  <RootName>  (1) 
./4ZLY/04_DeltaGEst/trajectory_04/rank_01/lead_0393

$$$$
