confid_15
     RDKit          3D

 32 35  0  0  0  0  0  0  0  0999 V2000
   24.4800   26.1000   36.1300 N   0  0  0  0  0  0  0  0  0  0  0  0
   25.2500   26.2500   34.9900 C   0  0  0  0  0  0  0  0  0  0  0  0
   24.7400   25.7600   33.9900 O   0  0  0  0  0  0  0  0  0  0  0  0
   26.5900   26.8900   34.9600 C   0  0  0  0  0  0  0  0  0  0  0  0
   27.0600   27.2400   36.1600 N   0  0  0  0  0  0  0  0  0  0  0  0
   28.3000   27.7100   36.2400 N   0  0  0  0  0  0  0  0  0  0  0  0
   29.0500   27.9600   35.1500 C   0  0  0  0  0  0  0  0  0  0  0  0
   30.3400   28.4900   35.2600 C   0  0  0  0  0  0  0  0  0  0  0  0
   31.1100   28.8200   34.1400 C   0  0  0  0  0  0  0  0  0  0  0  0
   30.5200   28.6700   32.8800 C   0  0  0  0  0  0  0  0  0  0  0  0
   29.2900   28.0200   32.7700 C   0  0  0  0  0  0  0  0  0  0  0  0
   28.5200   27.7100   33.8900 C   0  0  0  0  0  0  0  0  0  0  0  0
   27.2700   27.0800   33.7600 C   0  0  0  0  0  0  0  0  0  0  0  0
   26.7500   26.8800   32.4900 N   0  0  0  0  0  0  0  0  0  0  0  0
   23.5251   25.0422   36.3570 C   0  0  0  0  0  0  0  0  0  0  0  0
   23.5839   23.9637   35.6243 N   0  0  0  0  0  0  0  0  0  0  0  0
   22.8097   22.7637   35.7462 C   0  0  0  0  0  0  0  0  0  0  0  0
   21.4810   22.6674   35.5236 C   0  0  0  0  0  0  0  0  0  0  0  0
   20.8193   21.3233   35.7526 C   0  0  0  0  0  0  0  0  0  0  0  0
   19.4810   21.4651   36.3481 N   0  0  0  0  0  0  0  0  0  0  0  0
   18.9387   22.8054   36.5999 C   0  0  0  0  0  0  0  0  0  0  0  0
   19.2104   23.7021   35.3932 C   0  0  0  0  0  0  0  0  0  0  0  0
   20.6512   23.7729   35.0800 N   0  0  0  0  0  0  0  0  0  0  0  0
   21.0450   24.5698   33.8995 C   0  0  0  0  0  0  0  0  0  0  0  0
   20.5544   26.0325   33.9576 C   0  0  0  0  0  0  0  0  0  0  0  0
   21.1234   26.8194   35.1418 C   0  0  0  0  0  0  0  0  0  0  0  0
   20.7220   26.2191   36.3591 O   0  0  0  0  0  0  0  0  0  0  0  0
   21.6774   26.4157   37.3824 C   0  0  0  0  0  0  0  0  0  0  0  0
   22.5786   25.1805   37.5281 C   0  0  0  0  0  0  0  0  0  0  0  0
   18.7574   20.2959   36.7917 C   0  0  0  0  0  0  0  0  0  0  0  0
   17.7575   20.4208   37.5506 O   0  0  0  0  0  0  0  0  0  0  0  0
   19.1789   18.9158   36.3836 C   0  0  0  0  0  0  0  0  0  0  0  0
  1  2  1  0
  2  3  2  0
  2  4  1  0
  4  5  2  0
  5  6  1  0
  6  7  2  0
  7  8  1  0
  8  9  2  0
  9 10  1  0
 10 11  2  0
 11 12  1  0
 12 13  2  0
 13 14  1  0
  1 15  1  0
 15 16  2  0
 16 17  1  0
 17 18  2  0
 18 19  1  0
 19 20  1  0
 20 21  1  0
 21 22  1  0
 22 23  1  0
 23 24  1  0
 24 25  1  0
 25 26  1  0
 26 27  1  0
 27 28  1  0
 28 29  1  0
 20 30  1  0
 30 31  2  0
 30 32  1  0
 13  4  1  0
 29 15  1  0
 12  7  1  0
 23 18  1  0
M  END
>  <AAScore>  (1) 
6318.430092964279

>  <RootName>  (1) 
./4ZLY/04_DeltaGEst/trajectory_00/rank_01/lead_0324

$$$$
