confid_1
     RDKit          3D

 27 30  0  0  0  0  0  0  0  0999 V2000
   24.5500   26.3900   36.2500 N   0  0  0  0  0  0  0  0  0  0  0  0
   25.6000   26.1300   35.4000 C   0  0  0  0  0  0  0  0  0  0  0  0
   25.4300   25.4300   34.4200 O   0  0  0  0  0  0  0  0  0  0  0  0
   26.9800   26.6300   35.7100 C   0  0  0  0  0  0  0  0  0  0  0  0
   27.3200   26.8200   36.9800 N   0  0  0  0  0  0  0  0  0  0  0  0
   28.4700   27.4000   37.3100 N   0  0  0  0  0  0  0  0  0  0  0  0
   29.4000   27.6300   36.3700 C   0  0  0  0  0  0  0  0  0  0  0  0
   30.6600   28.0500   36.8000 C   0  0  0  0  0  0  0  0  0  0  0  0
   31.5700   28.3600   35.7800 C   0  0  0  0  0  0  0  0  0  0  0  0
   31.3700   28.1000   34.4300 C   0  0  0  0  0  0  0  0  0  0  0  0
   30.1200   27.5900   34.0500 C   0  0  0  0  0  0  0  0  0  0  0  0
   29.1500   27.3400   35.0300 C   0  0  0  0  0  0  0  0  0  0  0  0
   27.8800   26.8900   34.6600 C   0  0  0  0  0  0  0  0  0  0  0  0
   27.4800   26.6100   33.3700 N   0  0  0  0  0  0  0  0  0  0  0  0
   31.0112   28.1648   38.1456 N   0  0  0  0  0  0  0  0  0  0  0  0
   32.2255   28.5563   38.8417 C   0  0  0  0  0  0  0  0  0  0  0  0
   31.3785   28.9346   40.0647 C   0  0  0  0  0  0  0  0  0  0  0  0
   30.3636   27.9621   39.4262 C   0  0  0  0  0  0  0  0  0  0  0  0
   31.0366   30.1678   40.2386 O   0  0  0  0  0  0  0  0  0  0  0  0
   30.6942   31.4026   40.4127 C   0  0  0  0  0  0  0  0  0  0  0  0
   30.0394   32.1611   39.4255 C   0  0  0  0  0  0  0  0  0  0  0  0
   29.6592   33.4585   39.5586 C   0  0  0  0  0  0  0  0  0  0  0  0
   29.9392   34.0771   40.7575 C   0  0  0  0  0  0  0  0  0  0  0  0
   29.5784   35.3682   40.9345 F   0  0  0  0  0  0  0  0  0  0  0  0
   30.5793   33.3950   41.7710 C   0  0  0  0  0  0  0  0  0  0  0  0
   30.9529   32.0930   41.6182 C   0  0  0  0  0  0  0  0  0  0  0  0
   31.5897   31.4024   42.6152 F   0  0  0  0  0  0  0  0  0  0  0  0
  1  2  1  0
  2  3  2  0
  2  4  1  0
  4  5  2  0
  5  6  1  0
  6  7  2  0
  7  8  1  0
  8  9  2  0
  9 10  1  0
 10 11  2  0
 11 12  1  0
 12 13  2  0
 13 14  1  0
  8 15  1  0
 15 16  1  0
 16 17  1  0
 17 18  1  0
 17 19  1  0
 19 20  1  0
 20 21  2  0
 21 22  1  0
 22 23  2  0
 23 24  1  0
 23 25  1  0
 25 26  2  0
 26 27  1  0
 13  4  1  0
 18 15  1  0
 26 20  1  0
 12  7  1  0
M  END
>  <AAScore>  (1) 
6.169279114206295

>  <RootName>  (1) 
./4ZLY/04_DeltaGEst/trajectory_01/rank_01/lead_0182

$$$$
