confid_12
     RDKit          3D

 30 33  0  0  0  0  0  0  0  0999 V2000
   24.5500   26.3900   36.2500 N   0  0  0  0  0  0  0  0  0  0  0  0
   25.6000   26.1300   35.4000 C   0  0  0  0  0  0  0  0  0  0  0  0
   25.4300   25.4300   34.4200 O   0  0  0  0  0  0  0  0  0  0  0  0
   26.9800   26.6300   35.7100 C   0  0  0  0  0  0  0  0  0  0  0  0
   27.3200   26.8200   36.9800 N   0  0  0  0  0  0  0  0  0  0  0  0
   28.4700   27.4000   37.3100 N   0  0  0  0  0  0  0  0  0  0  0  0
   29.4000   27.6300   36.3700 C   0  0  0  0  0  0  0  0  0  0  0  0
   30.6600   28.0500   36.8000 C   0  0  0  0  0  0  0  0  0  0  0  0
   31.5700   28.3600   35.7800 C   0  0  0  0  0  0  0  0  0  0  0  0
   31.3700   28.1000   34.4300 C   0  0  0  0  0  0  0  0  0  0  0  0
   30.1200   27.5900   34.0500 C   0  0  0  0  0  0  0  0  0  0  0  0
   29.1500   27.3400   35.0300 C   0  0  0  0  0  0  0  0  0  0  0  0
   27.8800   26.8900   34.6600 C   0  0  0  0  0  0  0  0  0  0  0  0
   27.4800   26.6100   33.3700 N   0  0  0  0  0  0  0  0  0  0  0  0
   31.0001   28.2987   38.2191 C   0  0  0  0  0  0  0  0  0  0  0  0
   32.0038   27.5295   38.8212 C   0  0  0  0  0  0  0  0  0  0  0  0
   32.3381   27.7098   40.1717 C   0  0  0  0  0  0  0  0  0  0  0  0
   33.4192   26.8414   40.7948 C   0  0  0  0  0  0  0  0  0  0  0  0
   32.9965   26.0910   42.0840 C   0  0  0  0  0  0  0  0  0  0  0  0
   31.6228   26.4102   42.5066 N   0  0  0  0  0  0  0  0  0  0  0  0
   30.5089   25.5640   42.1377 C   0  0  0  0  0  0  0  0  0  0  0  0
   29.3996   25.6922   42.7240 O   0  0  0  0  0  0  0  0  0  0  0  0
   30.6383   24.5030   41.0852 C   0  0  0  0  0  0  0  0  0  0  0  0
   31.3843   27.6909   43.1970 C   0  0  0  0  0  0  0  0  0  0  0  0
   31.9513   28.8744   42.3965 C   0  0  0  0  0  0  0  0  0  0  0  0
   31.6724   28.7091   40.9207 C   0  0  0  0  0  0  0  0  0  0  0  0
   30.6720   29.4831   40.3124 C   0  0  0  0  0  0  0  0  0  0  0  0
   30.3343   29.2917   38.9601 C   0  0  0  0  0  0  0  0  0  0  0  0
   29.3534   30.0706   38.3230 O   0  0  0  0  0  0  0  0  0  0  0  0
   28.5959   31.0957   38.9567 C   0  0  0  0  0  0  0  0  0  0  0  0
  1  2  1  0
  2  3  2  0
  2  4  1  0
  4  5  2  0
  5  6  1  0
  6  7  2  0
  7  8  1  0
  8  9  2  0
  9 10  1  0
 10 11  2  0
 11 12  1  0
 12 13  2  0
 13 14  1  0
  8 15  1  0
 15 16  2  0
 16 17  1  0
 17 18  1  0
 18 19  1  0
 19 20  1  0
 20 21  1  0
 21 22  2  0
 21 23  1  0
 20 24  1  0
 24 25  1  0
 25 26  1  0
 26 27  1  0
 27 28  2  0
 28 29  1  0
 29 30  1  0
 13  4  1  0
 28 15  1  0
 12  7  1  0
 26 17  2  0
M  END
>  <AAScore>  (1) 
38.78607516223229

>  <RootName>  (1) 
./4ZLY/04_DeltaGEst/trajectory_01/rank_01/lead_0114

$$$$
