confid_17
     RDKit          3D

 30 35  0  0  0  0  0  0  0  0999 V2000
   24.4800   26.1000   36.1300 N   0  0  0  0  0  0  0  0  0  0  0  0
   25.2500   26.2500   34.9900 C   0  0  0  0  0  0  0  0  0  0  0  0
   24.7400   25.7600   33.9900 O   0  0  0  0  0  0  0  0  0  0  0  0
   26.5900   26.8900   34.9600 C   0  0  0  0  0  0  0  0  0  0  0  0
   27.0600   27.2400   36.1600 N   0  0  0  0  0  0  0  0  0  0  0  0
   28.3000   27.7100   36.2400 N   0  0  0  0  0  0  0  0  0  0  0  0
   29.0500   27.9600   35.1500 C   0  0  0  0  0  0  0  0  0  0  0  0
   30.3400   28.4900   35.2600 C   0  0  0  0  0  0  0  0  0  0  0  0
   31.1100   28.8200   34.1400 C   0  0  0  0  0  0  0  0  0  0  0  0
   30.5200   28.6700   32.8800 C   0  0  0  0  0  0  0  0  0  0  0  0
   29.2900   28.0200   32.7700 C   0  0  0  0  0  0  0  0  0  0  0  0
   28.5200   27.7100   33.8900 C   0  0  0  0  0  0  0  0  0  0  0  0
   27.2700   27.0800   33.7600 C   0  0  0  0  0  0  0  0  0  0  0  0
   26.7500   26.8800   32.4900 N   0  0  0  0  0  0  0  0  0  0  0  0
   23.6513   24.9573   36.3912 C   0  0  0  0  0  0  0  0  0  0  0  0
   22.5683   25.1211   37.0990 N   0  0  0  0  0  0  0  0  0  0  0  0
   21.5817   24.1803   37.5811 C   0  0  0  0  0  0  0  0  0  0  0  0
   21.1503   23.0710   36.9583 C   0  0  0  0  0  0  0  0  0  0  0  0
   20.0122   22.1174   37.2013 C   0  0  0  0  0  0  0  0  0  0  0  0
   20.2156   21.3576   36.0552 O   0  0  0  0  0  0  0  0  0  0  0  0
   21.3104   22.1591   35.7537 C   0  0  2  0  0  0  0  0  0  0  0  0
   22.5970   21.3198   35.7634 C   0  0  0  0  0  0  0  0  0  0  0  0
   23.7229   22.2636   35.7429 C   0  0  0  0  0  0  0  0  0  0  0  0
   24.1016   23.6300   35.9861 C   0  0  0  0  0  0  0  0  0  0  0  0
   25.0476   22.6808   35.5821 C   0  0  0  0  0  0  0  0  0  0  0  0
   25.5531   22.7279   34.1401 C   0  0  0  0  0  0  0  0  0  0  0  0
   26.3348   21.4401   33.8558 C   0  0  0  0  0  0  0  0  0  0  0  0
   27.3483   21.2354   34.8271 O   0  0  0  0  0  0  0  0  0  0  0  0
   26.7688   20.9588   36.0922 C   0  0  0  0  0  0  0  0  0  0  0  0
   26.0297   22.1846   36.6431 C   0  0  0  0  0  0  0  0  0  0  0  0
  1  2  1  0
  2  3  2  0
  2  4  1  0
  4  5  2  0
  5  6  1  0
  6  7  2  0
  7  8  1  0
  8  9  2  0
  9 10  1  0
 10 11  2  0
 11 12  1  0
 12 13  2  0
 13 14  1  0
  1 15  1  0
 15 16  2  0
 16 17  1  0
 17 18  2  0
 18 19  1  0
 19 20  1  0
 20 21  1  0
 21 22  1  1
 22 23  1  0
 23 24  2  0
 24 25  1  0
 25 26  1  0
 26 27  1  0
 27 28  1  0
 28 29  1  0
 29 30  1  0
 13  4  1  0
 24 15  1  0
 30 25  1  0
 12  7  1  0
 21 18  1  0
 25 23  1  0
M  END
>  <AAScore>  (1) 
1357.075230074036

>  <RootName>  (1) 
./4ZLY/04_DeltaGEst/trajectory_00/rank_01/lead_0465

$$$$
