confid_14
     RDKit          3D

 28 31  0  0  0  0  0  0  0  0999 V2000
   24.2000   26.2400   35.6900 N   0  0  0  0  0  0  0  0  0  0  0  0
   24.8500   26.2800   34.4800 C   0  0  0  0  0  0  0  0  0  0  0  0
   24.3100   25.7400   33.5400 O   0  0  0  0  0  0  0  0  0  0  0  0
   26.1800   26.9700   34.4700 C   0  0  0  0  0  0  0  0  0  0  0  0
   26.6500   27.6000   35.5500 N   0  0  0  0  0  0  0  0  0  0  0  0
   27.7900   28.2700   35.6200 N   0  0  0  0  0  0  0  0  0  0  0  0
   28.5400   28.3000   34.5100 C   0  0  0  0  0  0  0  0  0  0  0  0
   29.7700   28.9400   34.5600 C   0  0  0  0  0  0  0  0  0  0  0  0
   30.7000   28.8900   33.5000 C   0  0  0  0  0  0  0  0  0  0  0  0
   30.3700   28.1400   32.3700 C   0  0  0  0  0  0  0  0  0  0  0  0
   29.1200   27.5200   32.2800 C   0  0  0  0  0  0  0  0  0  0  0  0
   28.2100   27.6100   33.3300 C   0  0  0  0  0  0  0  0  0  0  0  0
   26.9700   26.9700   33.3100 C   0  0  0  0  0  0  0  0  0  0  0  0
   26.5300   26.2400   32.2200 N   0  0  0  0  0  0  0  0  0  0  0  0
   23.1639   25.2894   36.0090 C   0  0  0  0  0  0  0  0  0  0  0  0
   22.9580   24.1591   35.3031 N   0  0  0  0  0  0  0  0  0  0  0  0
   21.9790   23.5064   35.9615 C   0  0  0  0  0  0  0  0  0  0  0  0
   21.3895   22.2391   35.3819 C   0  0  0  0  0  0  0  0  0  0  0  0
   20.5068   21.3800   36.3072 C   0  0  0  0  0  0  0  0  0  0  0  0
   19.0969   21.8380   36.4826 N   0  0  0  0  0  0  0  0  0  0  0  0
   18.8199   23.2922   36.3767 C   0  0  0  0  0  0  0  0  0  0  0  0
   19.1487   24.0402   37.6750 C   0  0  0  0  0  0  0  0  0  0  0  0
   20.5981   23.9076   38.1473 C   0  0  0  0  0  0  0  0  0  0  0  0
   21.6036   24.2638   37.0768 C   0  0  0  0  0  0  0  0  0  0  0  0
   22.3434   25.3968   37.0775 N   0  0  0  0  0  0  0  0  0  0  0  0
   22.2966   26.4916   38.0503 C   0  0  0  0  0  0  0  0  0  0  0  0
   18.1191   21.0133   35.7350 C   0  0  0  0  0  0  0  0  0  0  0  0
   18.2243   21.1799   34.2146 C   0  0  0  0  0  0  0  0  0  0  0  0
  1  2  1  0
  2  3  2  0
  2  4  1  0
  4  5  2  0
  5  6  1  0
  6  7  2  0
  7  8  1  0
  8  9  2  0
  9 10  1  0
 10 11  2  0
 11 12  1  0
 12 13  2  0
 13 14  1  0
  1 15  1  0
 15 16  2  0
 16 17  1  0
 17 18  1  0
 18 19  1  0
 19 20  1  0
 20 21  1  0
 21 22  1  0
 22 23  1  0
 23 24  1  0
 24 25  1  0
 25 26  1  0
 20 27  1  0
 27 28  1  0
 13  4  1  0
 25 15  1  0
 12  7  1  0
 24 17  2  0
M  END
>  <AAScore>  (1) 
703.541410637807

>  <RootName>  (1) 
./4ZLY/04_DeltaGEst/trajectory_04/rank_00/lead_0369

$$$$
