confid_3
     RDKit          3D

 28 31  0  0  0  0  0  0  0  0999 V2000
   24.6900   26.1200   35.5300 N   0  0  0  0  0  0  0  0  0  0  0  0
   25.6600   25.6700   34.6600 C   0  0  0  0  0  0  0  0  0  0  0  0
   25.2400   25.0100   33.7200 O   0  0  0  0  0  0  0  0  0  0  0  0
   27.0300   26.2200   34.8800 C   0  0  0  0  0  0  0  0  0  0  0  0
   27.3500   26.7300   36.0700 N   0  0  0  0  0  0  0  0  0  0  0  0
   28.5700   27.1800   36.3300 N   0  0  0  0  0  0  0  0  0  0  0  0
   29.5300   27.1100   35.3900 C   0  0  0  0  0  0  0  0  0  0  0  0
   30.8300   27.5700   35.6500 C   0  0  0  0  0  0  0  0  0  0  0  0
   31.8500   27.5400   34.6900 C   0  0  0  0  0  0  0  0  0  0  0  0
   31.5100   27.1200   33.4000 C   0  0  0  0  0  0  0  0  0  0  0  0
   30.2200   26.6300   33.1100 C   0  0  0  0  0  0  0  0  0  0  0  0
   29.2400   26.6600   34.1000 C   0  0  0  0  0  0  0  0  0  0  0  0
   27.9300   26.2600   33.8100 C   0  0  0  0  0  0  0  0  0  0  0  0
   27.5200   25.7100   32.6100 N   0  0  0  0  0  0  0  0  0  0  0  0
   23.6464   25.3019   36.0919 C   0  0  0  0  0  0  0  0  0  0  0  0
   23.2516   25.4943   37.3095 N   0  0  0  0  0  0  0  0  0  0  0  0
   22.1238   24.6670   37.5362 C   0  0  0  0  0  0  0  0  0  0  0  0
   21.7972   24.0108   36.4402 C   0  0  0  0  0  0  0  0  0  0  0  0
   20.8664   22.8482   36.3611 C   0  0  0  0  0  0  0  0  0  0  0  0
   21.1353   22.0727   35.2025 O   0  0  0  0  0  0  0  0  0  0  0  0
   22.5206   21.7401   35.0575 C   0  0  0  0  0  0  0  0  0  0  0  0
   22.6276   20.8679   33.7934 C   0  0  0  0  0  0  0  0  0  0  0  0
   23.4204   23.0223   34.8763 C   0  0  0  0  0  0  0  0  0  0  0  0
   22.7399   24.3417   35.3374 C   0  0  2  0  0  0  0  0  0  0  0  0
   21.9964   25.0537   34.1834 C   0  0  0  0  0  0  0  0  0  0  0  0
   21.2514   26.1511   34.6782 O   0  0  0  0  0  0  0  0  0  0  0  0
   20.8633   26.9849   33.6095 C   0  0  0  0  0  0  0  0  0  0  0  0
   23.0210   20.8877   36.2532 C   0  0  0  0  0  0  0  0  0  0  0  0
  1  2  1  0
  2  3  2  0
  2  4  1  0
  4  5  2  0
  5  6  1  0
  6  7  2  0
  7  8  1  0
  8  9  2  0
  9 10  1  0
 10 11  2  0
 11 12  1  0
 12 13  2  0
 13 14  1  0
  1 15  1  0
 15 16  2  0
 16 17  1  0
 17 18  2  0
 18 19  1  0
 19 20  1  0
 20 21  1  0
 21 22  1  0
 21 23  1  0
 23 24  1  0
 24 25  1  6
 25 26  1  0
 26 27  1  0
 21 28  1  0
 13  4  1  0
 24 15  1  0
 12  7  1  0
 24 18  1  0
M  END
>  <AAScore>  (1) 
2044.023375365243

>  <RootName>  (1) 
./4ZLY/04_DeltaGEst/trajectory_02/rank_00/lead_0022

$$$$
