confid_19
     RDKit          3D

 28 31  0  0  0  0  0  0  0  0999 V2000
   24.6900   26.1200   35.5300 N   0  0  0  0  0  0  0  0  0  0  0  0
   25.6600   25.6700   34.6600 C   0  0  0  0  0  0  0  0  0  0  0  0
   25.2400   25.0100   33.7200 O   0  0  0  0  0  0  0  0  0  0  0  0
   27.0300   26.2200   34.8800 C   0  0  0  0  0  0  0  0  0  0  0  0
   27.3500   26.7300   36.0700 N   0  0  0  0  0  0  0  0  0  0  0  0
   28.5700   27.1800   36.3300 N   0  0  0  0  0  0  0  0  0  0  0  0
   29.5300   27.1100   35.3900 C   0  0  0  0  0  0  0  0  0  0  0  0
   30.8300   27.5700   35.6500 C   0  0  0  0  0  0  0  0  0  0  0  0
   31.8500   27.5400   34.6900 C   0  0  0  0  0  0  0  0  0  0  0  0
   31.5100   27.1200   33.4000 C   0  0  0  0  0  0  0  0  0  0  0  0
   30.2200   26.6300   33.1100 C   0  0  0  0  0  0  0  0  0  0  0  0
   29.2400   26.6600   34.1000 C   0  0  0  0  0  0  0  0  0  0  0  0
   27.9300   26.2600   33.8100 C   0  0  0  0  0  0  0  0  0  0  0  0
   27.5200   25.7100   32.6100 N   0  0  0  0  0  0  0  0  0  0  0  0
   23.2958   26.2603   35.2011 C   0  0  0  0  0  0  0  0  0  0  0  0
   22.3635   26.0212   36.1620 N   0  0  0  0  0  0  0  0  0  0  0  0
   21.0308   26.1442   35.9262 C   0  0  0  0  0  0  0  0  0  0  0  0
   20.5722   26.5292   34.6586 C   0  0  0  0  0  0  0  0  0  0  0  0
   19.1315   26.6645   34.3617 C   0  0  0  0  0  0  0  0  0  0  0  0
   18.2773   26.5776   35.2863 O   0  0  0  0  0  0  0  0  0  0  0  0
   18.7174   26.9144   33.0052 N   0  0  0  0  0  0  0  0  0  0  0  0
   17.3183   27.2171   32.6861 C   0  0  0  0  0  0  0  0  0  0  0  0
   16.5516   25.9256   32.3890 C   0  0  0  0  0  0  0  0  0  0  0  0
   15.0746   26.2038   32.1331 C   0  0  0  0  0  0  0  0  0  0  0  0
   19.6831   26.6723   31.9252 C   0  0  0  0  0  0  0  0  0  0  0  0
   21.0502   27.2655   32.2864 C   0  0  0  0  0  0  0  0  0  0  0  0
   21.5109   26.7863   33.6428 C   0  0  0  0  0  0  0  0  0  0  0  0
   22.8795   26.6782   33.9259 C   0  0  0  0  0  0  0  0  0  0  0  0
  1  2  1  0
  2  3  2  0
  2  4  1  0
  4  5  2  0
  5  6  1  0
  6  7  2  0
  7  8  1  0
  8  9  2  0
  9 10  1  0
 10 11  2  0
 11 12  1  0
 12 13  2  0
 13 14  1  0
  1 15  1  0
 15 16  2  0
 16 17  1  0
 17 18  2  0
 18 19  1  0
 19 20  2  0
 19 21  1  0
 21 22  1  0
 22 23  1  0
 23 24  1  0
 21 25  1  0
 25 26  1  0
 26 27  1  0
 27 28  2  0
 13  4  1  0
 28 15  1  0
 12  7  1  0
 27 18  1  0
M  END
>  <AAScore>  (1) 
304.72236379866024

>  <RootName>  (1) 
./4ZLY/04_DeltaGEst/trajectory_02/rank_00/lead_0187

$$$$
