confid_12
     RDKit          3D

 29 33  0  0  0  0  0  0  0  0999 V2000
   24.5700   26.8800   35.5900 N   0  0  0  0  0  0  0  0  0  0  0  0
   25.5000   26.4000   34.6900 C   0  0  0  0  0  0  0  0  0  0  0  0
   25.1700   25.5200   33.9100 O   0  0  0  0  0  0  0  0  0  0  0  0
   26.8400   27.0200   34.7400 C   0  0  0  0  0  0  0  0  0  0  0  0
   27.3800   27.2800   35.9400 N   0  0  0  0  0  0  0  0  0  0  0  0
   28.6200   27.7400   36.0300 N   0  0  0  0  0  0  0  0  0  0  0  0
   29.3800   28.0000   34.9600 C   0  0  0  0  0  0  0  0  0  0  0  0
   30.6700   28.5000   35.1300 C   0  0  0  0  0  0  0  0  0  0  0  0
   31.5400   28.6100   34.0300 C   0  0  0  0  0  0  0  0  0  0  0  0
   31.0900   28.2200   32.7700 C   0  0  0  0  0  0  0  0  0  0  0  0
   29.8000   27.7000   32.6000 C   0  0  0  0  0  0  0  0  0  0  0  0
   28.9600   27.5500   33.7100 C   0  0  0  0  0  0  0  0  0  0  0  0
   27.6600   27.0300   33.5900 C   0  0  0  0  0  0  0  0  0  0  0  0
   27.1600   26.7400   32.3400 N   0  0  0  0  0  0  0  0  0  0  0  0
   23.1597   26.6165   35.5127 C   0  0  0  0  0  0  0  0  0  0  0  0
   22.3452   26.8583   36.4942 N   0  0  0  0  0  0  0  0  0  0  0  0
   21.0192   26.5919   36.0089 C   0  0  0  0  0  0  0  0  0  0  0  0
   21.0665   26.1478   34.7594 C   0  0  0  0  0  0  0  0  0  0  0  0
   20.1891   26.4513   33.6028 C   0  0  1  0  0  0  0  0  0  0  0  0
   21.2504   26.5390   32.4621 C   0  0  0  0  0  0  0  0  0  0  0  0
   22.5596   26.5650   33.1260 N   0  0  0  0  0  0  0  0  0  0  0  0
   22.4089   26.1861   34.3454 C   0  0  0  0  0  0  0  0  0  0  0  0
   19.1426   25.3456   33.3913 C   0  0  0  0  0  0  0  0  0  0  0  0
   18.2228   25.6786   32.2451 C   0  0  0  0  0  0  0  0  0  0  0  0
   17.1892   26.6113   32.4171 C   0  0  0  0  0  0  0  0  0  0  0  0
   16.3600   26.9270   31.3381 C   0  0  0  0  0  0  0  0  0  0  0  0
   16.5584   26.3366   30.1297 N   0  0  0  0  0  0  0  0  0  0  0  0
   17.5552   25.4333   29.9332 C   0  0  0  0  0  0  0  0  0  0  0  0
   18.4071   25.0889   30.9854 C   0  0  0  0  0  0  0  0  0  0  0  0
  1  2  1  0
  2  3  2  0
  2  4  1  0
  4  5  2  0
  5  6  1  0
  6  7  2  0
  7  8  1  0
  8  9  2  0
  9 10  1  0
 10 11  2  0
 11 12  1  0
 12 13  2  0
 13 14  1  0
  1 15  1  0
 15 16  2  0
 16 17  1  0
 17 18  2  0
 18 19  1  0
 19 20  1  0
 20 21  1  0
 21 22  2  0
 19 23  1  6
 23 24  1  0
 24 25  2  0
 25 26  1  0
 26 27  2  0
 27 28  1  0
 28 29  2  0
 13  4  1  0
 22 15  1  0
 29 24  1  0
 12  7  1  0
 22 18  1  0
M  END
>  <AAScore>  (1) 
164.39885981844213

>  <RootName>  (1) 
./4ZLY/04_DeltaGEst/trajectory_05/rank_00/lead_0231

$$$$
