confid_18
     RDKit          3D

 27 30  0  0  0  0  0  0  0  0999 V2000
   24.5500   26.3900   36.2500 N   0  0  0  0  0  0  0  0  0  0  0  0
   25.6000   26.1300   35.4000 C   0  0  0  0  0  0  0  0  0  0  0  0
   25.4300   25.4300   34.4200 O   0  0  0  0  0  0  0  0  0  0  0  0
   26.9800   26.6300   35.7100 C   0  0  0  0  0  0  0  0  0  0  0  0
   27.3200   26.8200   36.9800 N   0  0  0  0  0  0  0  0  0  0  0  0
   28.4700   27.4000   37.3100 N   0  0  0  0  0  0  0  0  0  0  0  0
   29.4000   27.6300   36.3700 C   0  0  0  0  0  0  0  0  0  0  0  0
   30.6600   28.0500   36.8000 C   0  0  0  0  0  0  0  0  0  0  0  0
   31.5700   28.3600   35.7800 C   0  0  0  0  0  0  0  0  0  0  0  0
   31.3700   28.1000   34.4300 C   0  0  0  0  0  0  0  0  0  0  0  0
   30.1200   27.5900   34.0500 C   0  0  0  0  0  0  0  0  0  0  0  0
   29.1500   27.3400   35.0300 C   0  0  0  0  0  0  0  0  0  0  0  0
   27.8800   26.8900   34.6600 C   0  0  0  0  0  0  0  0  0  0  0  0
   27.4800   26.6100   33.3700 N   0  0  0  0  0  0  0  0  0  0  0  0
   30.9649   28.2950   38.1834 N   0  0  0  0  0  0  0  0  0  0  0  0
   31.2883   29.6600   38.6230 C   0  0  0  0  0  0  0  0  0  0  0  0
   31.5305   29.7131   40.1342 C   0  0  0  0  0  0  0  0  0  0  0  0
   30.4940   28.9358   40.8297 N   0  0  0  0  0  0  0  0  0  0  0  0
   29.7955   29.4667   41.9718 C   0  0  0  0  0  0  0  0  0  0  0  0
   29.3484   30.7991   41.9969 C   0  0  0  0  0  0  0  0  0  0  0  0
   28.6560   31.2713   43.1137 C   0  0  0  0  0  0  0  0  0  0  0  0
   28.4043   30.4173   44.1890 C   0  0  0  0  0  0  0  0  0  0  0  0
   27.5324   30.9957   45.5967 Cl  0  0  0  0  0  0  0  0  0  0  0  0
   28.8455   29.0937   44.1255 C   0  0  0  0  0  0  0  0  0  0  0  0
   29.5189   28.6528   43.0298 N   0  0  0  0  0  0  0  0  0  0  0  0
   30.2141   27.5546   40.4060 C   0  0  0  0  0  0  0  0  0  0  0  0
   30.9932   27.1803   39.1386 C   0  0  0  0  0  0  0  0  0  0  0  0
  1  2  1  0
  2  3  2  0
  2  4  1  0
  4  5  2  0
  5  6  1  0
  6  7  2  0
  7  8  1  0
  8  9  2  0
  9 10  1  0
 10 11  2  0
 11 12  1  0
 12 13  2  0
 13 14  1  0
  8 15  1  0
 15 16  1  0
 16 17  1  0
 17 18  1  0
 18 19  1  0
 19 20  2  0
 20 21  1  0
 21 22  2  0
 22 23  1  0
 22 24  1  0
 24 25  2  0
 18 26  1  0
 26 27  1  0
 13  4  1  0
 27 15  1  0
 12  7  1  0
 25 19  1  0
M  END
>  <AAScore>  (1) 
89.85622528440328

>  <RootName>  (1) 
./4ZLY/04_DeltaGEst/trajectory_01/rank_01/lead_0432

$$$$
