confid_0
     RDKit          3D

 28 31  0  0  0  0  0  0  0  0999 V2000
   24.5500   26.3900   36.2500 N   0  0  0  0  0  0  0  0  0  0  0  0
   25.6000   26.1300   35.4000 C   0  0  0  0  0  0  0  0  0  0  0  0
   25.4300   25.4300   34.4200 O   0  0  0  0  0  0  0  0  0  0  0  0
   26.9800   26.6300   35.7100 C   0  0  0  0  0  0  0  0  0  0  0  0
   27.3200   26.8200   36.9800 N   0  0  0  0  0  0  0  0  0  0  0  0
   28.4700   27.4000   37.3100 N   0  0  0  0  0  0  0  0  0  0  0  0
   29.4000   27.6300   36.3700 C   0  0  0  0  0  0  0  0  0  0  0  0
   30.6600   28.0500   36.8000 C   0  0  0  0  0  0  0  0  0  0  0  0
   31.5700   28.3600   35.7800 C   0  0  0  0  0  0  0  0  0  0  0  0
   31.3700   28.1000   34.4300 C   0  0  0  0  0  0  0  0  0  0  0  0
   30.1200   27.5900   34.0500 C   0  0  0  0  0  0  0  0  0  0  0  0
   29.1500   27.3400   35.0300 C   0  0  0  0  0  0  0  0  0  0  0  0
   27.8800   26.8900   34.6600 C   0  0  0  0  0  0  0  0  0  0  0  0
   27.4800   26.6100   33.3700 N   0  0  0  0  0  0  0  0  0  0  0  0
   23.2378   25.7345   36.1310 C   0  0  0  0  0  0  0  0  0  0  0  0
   23.3332   24.2698   36.5979 C   0  0  0  0  0  0  0  0  0  0  0  0
   23.7601   24.1970   38.0728 C   0  0  0  0  0  0  0  0  0  0  0  0
   23.1283   25.2631   38.8661 N   0  0  0  0  0  0  0  0  0  0  0  0
   23.7797   25.7557   40.0524 C   0  0  0  0  0  0  0  0  0  0  0  0
   24.1951   27.0944   40.1138 C   0  0  0  0  0  0  0  0  0  0  0  0
   24.8520   27.5753   41.2462 C   0  0  0  0  0  0  0  0  0  0  0  0
   25.0843   26.7141   42.3179 C   0  0  0  0  0  0  0  0  0  0  0  0
   24.6652   25.4230   42.2563 N   0  0  0  0  0  0  0  0  0  0  0  0
   24.0258   24.9228   41.1644 C   0  0  0  0  0  0  0  0  0  0  0  0
   23.5722   23.5574   41.1993 C   0  0  0  0  0  0  0  0  0  0  0  0
   23.2071   22.4597   41.2308 N   0  0  0  0  0  0  0  0  0  0  0  0
   21.9244   25.9299   38.3553 C   0  0  0  0  0  0  0  0  0  0  0  0
   22.1624   26.5037   36.9443 C   0  0  0  0  0  0  0  0  0  0  0  0
  1  2  1  0
  2  3  2  0
  2  4  1  0
  4  5  2  0
  5  6  1  0
  6  7  2  0
  7  8  1  0
  8  9  2  0
  9 10  1  0
 10 11  2  0
 11 12  1  0
 12 13  2  0
 13 14  1  0
  1 15  1  0
 15 16  1  0
 16 17  1  0
 17 18  1  0
 18 19  1  0
 19 20  2  0
 20 21  1  0
 21 22  2  0
 22 23  1  0
 23 24  2  0
 24 25  1  0
 25 26  3  0
 18 27  1  0
 27 28  1  0
 13  4  1  0
 28 15  1  0
 12  7  1  0
 24 19  1  0
M  END
>  <AAScore>  (1) 
333.93850961479933

>  <RootName>  (1) 
./4ZLY/04_DeltaGEst/trajectory_01/rank_00/lead_0470

$$$$
