confid_16
     RDKit          3D

 28 32  0  0  0  0  0  0  0  0999 V2000
   24.2000   26.2400   35.6900 N   0  0  0  0  0  0  0  0  0  0  0  0
   24.8500   26.2800   34.4800 C   0  0  0  0  0  0  0  0  0  0  0  0
   24.3100   25.7400   33.5400 O   0  0  0  0  0  0  0  0  0  0  0  0
   26.1800   26.9700   34.4700 C   0  0  0  0  0  0  0  0  0  0  0  0
   26.6500   27.6000   35.5500 N   0  0  0  0  0  0  0  0  0  0  0  0
   27.7900   28.2700   35.6200 N   0  0  0  0  0  0  0  0  0  0  0  0
   28.5400   28.3000   34.5100 C   0  0  0  0  0  0  0  0  0  0  0  0
   29.7700   28.9400   34.5600 C   0  0  0  0  0  0  0  0  0  0  0  0
   30.7000   28.8900   33.5000 C   0  0  0  0  0  0  0  0  0  0  0  0
   30.3700   28.1400   32.3700 C   0  0  0  0  0  0  0  0  0  0  0  0
   29.1200   27.5200   32.2800 C   0  0  0  0  0  0  0  0  0  0  0  0
   28.2100   27.6100   33.3300 C   0  0  0  0  0  0  0  0  0  0  0  0
   26.9700   26.9700   33.3100 C   0  0  0  0  0  0  0  0  0  0  0  0
   26.5300   26.2400   32.2200 N   0  0  0  0  0  0  0  0  0  0  0  0
   23.1664   25.3026   36.0493 C   0  0  0  0  0  0  0  0  0  0  0  0
   22.8597   24.3259   35.2400 N   0  0  0  0  0  0  0  0  0  0  0  0
   22.0003   23.2047   35.4823 C   0  0  0  0  0  0  0  0  0  0  0  0
   22.0279   22.6144   36.6673 C   0  0  0  0  0  0  0  0  0  0  0  0
   22.3138   22.6194   38.1653 C   0  0  2  0  0  0  0  0  0  0  0  0
   23.7573   23.1137   38.3745 C   0  0  0  0  0  0  0  0  0  0  0  0
   23.7528   24.5139   38.8481 N   0  0  0  0  0  0  0  0  0  0  0  0
   24.5394   24.8288   40.0543 C   0  0  0  0  0  0  0  0  0  0  0  0
   24.0806   26.1383   40.7147 C   0  0  0  0  0  0  0  0  0  0  0  0
   22.5556   26.1090   40.8751 C   0  0  0  0  0  0  0  0  0  0  0  0
   21.8516   26.0832   39.5051 C   0  0  0  0  0  0  0  0  0  0  0  0
   22.6896   25.4176   38.4451 C   0  0  0  0  0  0  0  0  0  0  0  0
   22.3622   25.6034   37.1979 N   0  0  0  0  0  0  0  0  0  0  0  0
   22.0222   21.3641   37.5470 C   0  0  0  0  0  0  0  0  0  0  0  0
  1  2  1  0
  2  3  2  0
  2  4  1  0
  4  5  2  0
  5  6  1  0
  6  7  2  0
  7  8  1  0
  8  9  2  0
  9 10  1  0
 10 11  2  0
 11 12  1  0
 12 13  2  0
 13 14  1  0
  1 15  1  0
 15 16  2  0
 16 17  1  0
 17 18  2  0
 18 19  1  0
 19 20  1  6
 20 21  1  0
 21 22  1  0
 22 23  1  0
 23 24  1  0
 24 25  1  0
 25 26  1  0
 26 27  2  0
 19 28  1  0
 13  4  1  0
 27 15  1  0
 12  7  1  0
 28 18  1  0
 26 21  1  0
M  END
>  <AAScore>  (1) 
5970.607159790642

>  <RootName>  (1) 
./4ZLY/04_DeltaGEst/trajectory_04/rank_00/lead_0076

$$$$
