confid_1
     RDKit          3D

 28 31  0  0  0  0  0  0  0  0999 V2000
   24.4800   26.1000   36.1300 N   0  0  0  0  0  0  0  0  0  0  0  0
   25.2500   26.2500   34.9900 C   0  0  0  0  0  0  0  0  0  0  0  0
   24.7400   25.7600   33.9900 O   0  0  0  0  0  0  0  0  0  0  0  0
   26.5900   26.8900   34.9600 C   0  0  0  0  0  0  0  0  0  0  0  0
   27.0600   27.2400   36.1600 N   0  0  0  0  0  0  0  0  0  0  0  0
   28.3000   27.7100   36.2400 N   0  0  0  0  0  0  0  0  0  0  0  0
   29.0500   27.9600   35.1500 C   0  0  0  0  0  0  0  0  0  0  0  0
   30.3400   28.4900   35.2600 C   0  0  0  0  0  0  0  0  0  0  0  0
   31.1100   28.8200   34.1400 C   0  0  0  0  0  0  0  0  0  0  0  0
   30.5200   28.6700   32.8800 C   0  0  0  0  0  0  0  0  0  0  0  0
   29.2900   28.0200   32.7700 C   0  0  0  0  0  0  0  0  0  0  0  0
   28.5200   27.7100   33.8900 C   0  0  0  0  0  0  0  0  0  0  0  0
   27.2700   27.0800   33.7600 C   0  0  0  0  0  0  0  0  0  0  0  0
   26.7500   26.8800   32.4900 N   0  0  0  0  0  0  0  0  0  0  0  0
   23.3268   25.2433   36.2677 C   0  0  0  0  0  0  0  0  0  0  0  0
   23.0896   24.2390   35.3792 N   0  0  0  0  0  0  0  0  0  0  0  0
   22.0131   23.4171   35.4845 C   0  0  0  0  0  0  0  0  0  0  0  0
   21.0943   23.5799   36.5327 C   0  0  0  0  0  0  0  0  0  0  0  0
   19.8985   22.6525   36.6339 C   0  0  0  0  0  0  0  0  0  0  0  0
   18.6762   23.1877   35.9991 N   0  0  0  0  0  0  0  0  0  0  0  0
   17.8753   24.1225   36.8187 C   0  0  0  0  0  0  0  0  0  0  0  0
   18.5023   25.5255   37.0096 C   0  0  0  0  0  0  0  0  0  0  0  0
   19.1735   25.7113   38.3803 C   0  0  0  0  0  0  0  0  0  0  0  0
   20.3839   24.8448   38.5753 C   0  0  0  0  0  0  0  0  0  0  0  0
   20.6439   24.3863   39.7194 O   0  0  0  0  0  0  0  0  0  0  0  0
   21.3247   24.6024   37.4729 C   0  0  0  0  0  0  0  0  0  0  0  0
   22.4470   25.4288   37.3412 C   0  0  0  0  0  0  0  0  0  0  0  0
   18.8249   23.5720   34.5860 C   0  0  0  0  0  0  0  0  0  0  0  0
  1  2  1  0
  2  3  2  0
  2  4  1  0
  4  5  2  0
  5  6  1  0
  6  7  2  0
  7  8  1  0
  8  9  2  0
  9 10  1  0
 10 11  2  0
 11 12  1  0
 12 13  2  0
 13 14  1  0
  1 15  1  0
 15 16  2  0
 16 17  1  0
 17 18  2  0
 18 19  1  0
 19 20  1  0
 20 21  1  0
 21 22  1  0
 22 23  1  0
 23 24  1  0
 24 25  2  0
 24 26  1  0
 26 27  2  0
 20 28  1  0
 13  4  1  0
 27 15  1  0
 12  7  1  0
 26 18  1  0
M  END
>  <AAScore>  (1) 
2441.7896489618256

>  <RootName>  (1) 
./4ZLY/04_DeltaGEst/trajectory_00/rank_00/lead_0331

$$$$
