confid_14
     RDKit          3D

 27 28  0  0  0  0  0  0  0  0999 V2000
   24.5700   26.8800   35.5900 N   0  0  0  0  0  0  0  0  0  0  0  0
   25.5000   26.4000   34.6900 C   0  0  0  0  0  0  0  0  0  0  0  0
   25.1700   25.5200   33.9100 O   0  0  0  0  0  0  0  0  0  0  0  0
   26.8400   27.0200   34.7400 C   0  0  0  0  0  0  0  0  0  0  0  0
   27.3800   27.2800   35.9400 N   0  0  0  0  0  0  0  0  0  0  0  0
   28.6200   27.7400   36.0300 N   0  0  0  0  0  0  0  0  0  0  0  0
   29.3800   28.0000   34.9600 C   0  0  0  0  0  0  0  0  0  0  0  0
   30.6700   28.5000   35.1300 C   0  0  0  0  0  0  0  0  0  0  0  0
   31.5400   28.6100   34.0300 C   0  0  0  0  0  0  0  0  0  0  0  0
   31.0900   28.2200   32.7700 C   0  0  0  0  0  0  0  0  0  0  0  0
   29.8000   27.7000   32.6000 C   0  0  0  0  0  0  0  0  0  0  0  0
   28.9600   27.5500   33.7100 C   0  0  0  0  0  0  0  0  0  0  0  0
   27.6600   27.0300   33.5900 C   0  0  0  0  0  0  0  0  0  0  0  0
   27.1600   26.7400   32.3400 N   0  0  0  0  0  0  0  0  0  0  0  0
   33.1625   29.2719   34.2335 S   0  0  0  0  0  6  0  0  0  0  0  0
   33.5776   29.1177   35.6709 O   0  0  0  0  0  0  0  0  0  0  0  0
   34.1247   28.4719   33.4049 O   0  0  0  0  0  0  0  0  0  0  0  0
   33.1619   31.0294   33.7917 C   0  0  2  0  0  0  0  0  0  0  0  0
   32.3608   31.7501   34.9129 C   0  0  0  0  0  0  0  0  0  0  0  0
   32.2169   33.2887   34.8638 C   0  0  0  0  0  0  0  0  0  0  0  0
   31.2560   33.7729   33.7710 C   0  0  0  0  0  0  0  0  0  0  0  0
   33.5610   34.0221   34.8350 C   0  0  0  0  0  0  0  0  0  0  0  0
   32.5009   31.2112   32.5435 O   0  0  0  0  0  0  0  0  0  0  0  0
   33.3264   31.3999   31.3836 C   0  0  0  0  0  0  0  0  0  0  0  0
   34.1508   32.7074   31.4188 C   0  0  0  0  0  0  0  0  0  0  0  0
   34.2788   30.2191   31.1118 C   0  0  0  0  0  0  0  0  0  0  0  0
   32.3548   31.4956   30.1943 C   0  0  0  0  0  0  0  0  0  0  0  0
  1  2  1  0
  2  3  2  0
  2  4  1  0
  4  5  2  0
  5  6  1  0
  6  7  2  0
  7  8  1  0
  8  9  2  0
  9 10  1  0
 10 11  2  0
 11 12  1  0
 12 13  2  0
 13 14  1  0
  9 15  1  0
 15 16  2  0
 15 17  2  0
 15 18  1  0
 18 19  1  1
 19 20  1  0
 20 21  1  0
 20 22  1  0
 18 23  1  0
 23 24  1  0
 24 25  1  0
 24 26  1  0
 24 27  1  0
 13  4  1  0
 12  7  1  0
M  END
>  <AAScore>  (1) 
-5.83992959848344

>  <RootName>  (1) 
./4ZLY/04_DeltaGEst/trajectory_05/rank_01/lead_0194

$$$$
