confid_15
     RDKit          3D

 27 29  0  0  0  0  0  0  0  0999 V2000
   24.5700   26.8800   35.5900 N   0  0  0  0  0  0  0  0  0  0  0  0
   25.5000   26.4000   34.6900 C   0  0  0  0  0  0  0  0  0  0  0  0
   25.1700   25.5200   33.9100 O   0  0  0  0  0  0  0  0  0  0  0  0
   26.8400   27.0200   34.7400 C   0  0  0  0  0  0  0  0  0  0  0  0
   27.3800   27.2800   35.9400 N   0  0  0  0  0  0  0  0  0  0  0  0
   28.6200   27.7400   36.0300 N   0  0  0  0  0  0  0  0  0  0  0  0
   29.3800   28.0000   34.9600 C   0  0  0  0  0  0  0  0  0  0  0  0
   30.6700   28.5000   35.1300 C   0  0  0  0  0  0  0  0  0  0  0  0
   31.5400   28.6100   34.0300 C   0  0  0  0  0  0  0  0  0  0  0  0
   31.0900   28.2200   32.7700 C   0  0  0  0  0  0  0  0  0  0  0  0
   29.8000   27.7000   32.6000 C   0  0  0  0  0  0  0  0  0  0  0  0
   28.9600   27.5500   33.7100 C   0  0  0  0  0  0  0  0  0  0  0  0
   27.6600   27.0300   33.5900 C   0  0  0  0  0  0  0  0  0  0  0  0
   27.1600   26.7400   32.3400 N   0  0  0  0  0  0  0  0  0  0  0  0
   33.1770   29.2261   34.2400 S   0  0  0  0  0  6  0  0  0  0  0  0
   33.5209   29.2559   35.7050 O   0  0  0  0  0  0  0  0  0  0  0  0
   34.1381   28.3010   33.5449 O   0  0  0  0  0  0  0  0  0  0  0  0
   33.3155   30.8870   33.5846 C   0  0  0  0  0  0  0  0  0  0  0  0
   33.2586   30.8703   32.0755 C   0  0  0  0  0  0  0  0  0  0  0  0
   32.1418   31.0989   31.3390 N   0  0  0  0  0  0  0  0  0  0  0  0
   32.4829   30.9304   30.0373 C   0  0  0  0  0  0  0  0  0  0  0  0
   31.5457   31.1583   28.8821 C   0  0  0  0  0  0  0  0  0  0  0  0
   33.8114   30.5416   29.9391 C   0  0  0  0  0  0  0  0  0  0  0  0
   34.5533   30.1919   28.6800 C   0  0  0  0  0  0  0  0  0  0  0  0
   34.3148   30.5267   31.2314 C   0  0  0  0  0  0  0  0  0  0  0  0
   35.7154   30.1527   31.6210 C   0  0  0  0  0  0  0  0  0  0  0  0
   30.8450   31.5908   31.8281 C   0  0  0  0  0  0  0  0  0  0  0  0
  1  2  1  0
  2  3  2  0
  2  4  1  0
  4  5  2  0
  5  6  1  0
  6  7  2  0
  7  8  1  0
  8  9  2  0
  9 10  1  0
 10 11  2  0
 11 12  1  0
 12 13  2  0
 13 14  1  0
  9 15  1  0
 15 16  2  0
 15 17  2  0
 15 18  1  0
 18 19  1  0
 19 20  1  0
 20 21  1  0
 21 22  1  0
 21 23  2  0
 23 24  1  0
 23 25  1  0
 25 26  1  0
 20 27  1  0
 13  4  1  0
 25 19  2  0
 12  7  1  0
M  END
>  <AAScore>  (1) 
-5.938338856268309

>  <RootName>  (1) 
./4ZLY/04_DeltaGEst/trajectory_05/rank_01/lead_0258

$$$$
