confid_2
     RDKit          3D

 27 29  0  0  0  0  0  0  0  0999 V2000
   24.4800   26.1000   36.1300 N   0  0  0  0  0  0  0  0  0  0  0  0
   25.2500   26.2500   34.9900 C   0  0  0  0  0  0  0  0  0  0  0  0
   24.7400   25.7600   33.9900 O   0  0  0  0  0  0  0  0  0  0  0  0
   26.5900   26.8900   34.9600 C   0  0  0  0  0  0  0  0  0  0  0  0
   27.0600   27.2400   36.1600 N   0  0  0  0  0  0  0  0  0  0  0  0
   28.3000   27.7100   36.2400 N   0  0  0  0  0  0  0  0  0  0  0  0
   29.0500   27.9600   35.1500 C   0  0  0  0  0  0  0  0  0  0  0  0
   30.3400   28.4900   35.2600 C   0  0  0  0  0  0  0  0  0  0  0  0
   31.1100   28.8200   34.1400 C   0  0  0  0  0  0  0  0  0  0  0  0
   30.5200   28.6700   32.8800 C   0  0  0  0  0  0  0  0  0  0  0  0
   29.2900   28.0200   32.7700 C   0  0  0  0  0  0  0  0  0  0  0  0
   28.5200   27.7100   33.8900 C   0  0  0  0  0  0  0  0  0  0  0  0
   27.2700   27.0800   33.7600 C   0  0  0  0  0  0  0  0  0  0  0  0
   26.7500   26.8800   32.4900 N   0  0  0  0  0  0  0  0  0  0  0  0
   23.4646   25.1002   36.3338 C   0  0  0  0  0  0  0  0  0  0  0  0
   23.3129   24.0646   35.4656 N   0  0  0  0  0  0  0  0  0  0  0  0
   22.3699   23.1066   35.6641 C   0  0  0  0  0  0  0  0  0  0  0  0
   21.5395   23.1788   36.7883 C   0  0  0  0  0  0  0  0  0  0  0  0
   21.7049   24.2454   37.6897 C   0  0  0  0  0  0  0  0  0  0  0  0
   20.8845   24.3788   38.8751 N   0  0  0  0  0  0  0  0  0  0  0  0
   19.8343   23.4022   39.1903 C   0  0  0  0  0  0  0  0  0  0  0  0
   21.1133   25.5155   39.7746 C   0  0  0  0  0  0  0  0  0  0  0  0
   22.6685   25.1733   37.4327 N   0  0  0  0  0  0  0  0  0  0  0  0
   22.2257   21.9794   34.6837 C   0  0  0  0  0  0  0  0  0  0  0  0
   23.1437   22.1083   33.6559 F   0  0  0  0  0  0  0  0  0  0  0  0
   20.9507   21.9897   34.1481 F   0  0  0  0  0  0  0  0  0  0  0  0
   22.4402   20.7739   35.3265 F   0  0  0  0  0  0  0  0  0  0  0  0
  1  2  1  0
  2  3  2  0
  2  4  1  0
  4  5  2  0
  5  6  1  0
  6  7  2  0
  7  8  1  0
  8  9  2  0
  9 10  1  0
 10 11  2  0
 11 12  1  0
 12 13  2  0
 13 14  1  0
  1 15  1  0
 15 16  2  0
 16 17  1  0
 17 18  2  0
 18 19  1  0
 19 20  1  0
 20 21  1  0
 20 22  1  0
 19 23  2  0
 17 24  1  0
 24 25  1  0
 24 26  1  0
 24 27  1  0
 13  4  1  0
 23 15  1  0
 12  7  1  0
M  END
>  <AAScore>  (1) 
701.589659970387

>  <RootName>  (1) 
./4ZLY/04_DeltaGEst/trajectory_00/rank_00/lead_0241

$$$$
