confid_2
     RDKit          3D

 29 33  0  0  0  0  0  0  0  0999 V2000
   24.2000   26.2400   35.6900 N   0  0  0  0  0  0  0  0  0  0  0  0
   24.8500   26.2800   34.4800 C   0  0  0  0  0  0  0  0  0  0  0  0
   24.3100   25.7400   33.5400 O   0  0  0  0  0  0  0  0  0  0  0  0
   26.1800   26.9700   34.4700 C   0  0  0  0  0  0  0  0  0  0  0  0
   26.6500   27.6000   35.5500 N   0  0  0  0  0  0  0  0  0  0  0  0
   27.7900   28.2700   35.6200 N   0  0  0  0  0  0  0  0  0  0  0  0
   28.5400   28.3000   34.5100 C   0  0  0  0  0  0  0  0  0  0  0  0
   29.7700   28.9400   34.5600 C   0  0  0  0  0  0  0  0  0  0  0  0
   30.7000   28.8900   33.5000 C   0  0  0  0  0  0  0  0  0  0  0  0
   30.3700   28.1400   32.3700 C   0  0  0  0  0  0  0  0  0  0  0  0
   29.1200   27.5200   32.2800 C   0  0  0  0  0  0  0  0  0  0  0  0
   28.2100   27.6100   33.3300 C   0  0  0  0  0  0  0  0  0  0  0  0
   26.9700   26.9700   33.3100 C   0  0  0  0  0  0  0  0  0  0  0  0
   26.5300   26.2400   32.2200 N   0  0  0  0  0  0  0  0  0  0  0  0
   22.7765   26.1088   35.8449 C   0  0  0  0  0  0  0  0  0  0  0  0
   21.9449   26.1862   34.7731 N   0  0  0  0  0  0  0  0  0  0  0  0
   20.5975   26.0884   34.9092 C   0  0  0  0  0  0  0  0  0  0  0  0
   19.7468   26.1311   33.6729 C   0  0  0  0  0  0  0  0  0  0  0  0
   18.2646   26.3522   34.0013 C   0  0  0  0  0  0  0  0  0  0  0  0
   17.8097   25.4896   35.1091 N   0  0  0  0  0  0  0  0  0  0  0  0
   18.5298   25.8137   36.3597 C   0  0  0  0  0  0  0  0  0  0  0  0
   20.0366   25.8743   36.1827 C   0  0  0  0  0  0  0  0  0  0  0  0
   20.9132   25.8302   37.2881 C   0  0  0  0  0  0  0  0  0  0  0  0
   22.2527   25.9409   37.0859 N   0  0  0  0  0  0  0  0  0  0  0  0
   20.4140   25.6510   38.6918 C   0  0  0  0  0  0  0  0  0  0  0  0
   17.8680   24.0492   34.7749 C   0  0  0  0  0  0  0  0  0  0  0  0
   16.7916   23.2883   35.5624 C   0  0  0  0  0  0  0  0  0  0  0  0
   15.4056   23.2899   34.9361 C   0  0  0  0  0  0  0  0  0  0  0  0
   16.2583   22.0304   34.8928 C   0  0  0  0  0  0  0  0  0  0  0  0
  1  2  1  0
  2  3  2  0
  2  4  1  0
  4  5  2  0
  5  6  1  0
  6  7  2  0
  7  8  1  0
  8  9  2  0
  9 10  1  0
 10 11  2  0
 11 12  1  0
 12 13  2  0
 13 14  1  0
  1 15  1  0
 15 16  2  0
 16 17  1  0
 17 18  1  0
 18 19  1  0
 19 20  1  0
 20 21  1  0
 21 22  1  0
 22 23  1  0
 23 24  2  0
 23 25  1  0
 20 26  1  0
 26 27  1  0
 27 28  1  0
 28 29  1  0
 13  4  1  0
 24 15  1  0
 29 27  1  0
 12  7  1  0
 22 17  2  0
M  END
>  <AAScore>  (1) 
1096.0052445079057

>  <RootName>  (1) 
./4ZLY/04_DeltaGEst/trajectory_04/rank_00/lead_0423

$$$$
