confid_7
     RDKit          3D

 26 28  0  0  0  0  0  0  0  0999 V2000
   24.5700   26.8800   35.5900 N   0  0  0  0  0  0  0  0  0  0  0  0
   25.5000   26.4000   34.6900 C   0  0  0  0  0  0  0  0  0  0  0  0
   25.1700   25.5200   33.9100 O   0  0  0  0  0  0  0  0  0  0  0  0
   26.8400   27.0200   34.7400 C   0  0  0  0  0  0  0  0  0  0  0  0
   27.3800   27.2800   35.9400 N   0  0  0  0  0  0  0  0  0  0  0  0
   28.6200   27.7400   36.0300 N   0  0  0  0  0  0  0  0  0  0  0  0
   29.3800   28.0000   34.9600 C   0  0  0  0  0  0  0  0  0  0  0  0
   30.6700   28.5000   35.1300 C   0  0  0  0  0  0  0  0  0  0  0  0
   31.5400   28.6100   34.0300 C   0  0  0  0  0  0  0  0  0  0  0  0
   31.0900   28.2200   32.7700 C   0  0  0  0  0  0  0  0  0  0  0  0
   29.8000   27.7000   32.6000 C   0  0  0  0  0  0  0  0  0  0  0  0
   28.9600   27.5500   33.7100 C   0  0  0  0  0  0  0  0  0  0  0  0
   27.6600   27.0300   33.5900 C   0  0  0  0  0  0  0  0  0  0  0  0
   27.1600   26.7400   32.3400 N   0  0  0  0  0  0  0  0  0  0  0  0
   33.1406   29.3175   34.2281 S   0  0  0  0  0  6  0  0  0  0  0  0
   33.6972   28.9304   35.5695 O   0  0  0  0  0  0  0  0  0  0  0  0
   34.0603   28.7936   33.1609 O   0  0  0  0  0  0  0  0  0  0  0  0
   33.0385   31.0990   34.1213 C   0  0  0  0  0  0  0  0  0  0  0  0
   32.2035   31.5139   32.9353 C   0  0  0  0  0  0  0  0  0  0  0  0
   30.8189   31.6874   33.1048 C   0  0  0  0  0  0  0  0  0  0  0  0
   30.0025   32.0019   32.0170 C   0  0  0  0  0  0  0  0  0  0  0  0
   30.5569   32.1620   30.7408 C   0  0  0  0  0  0  0  0  0  0  0  0
   31.9342   31.9736   30.5594 C   0  0  0  0  0  0  0  0  0  0  0  0
   32.7595   31.6545   31.6447 C   0  0  0  0  0  0  0  0  0  0  0  0
   34.4798   31.4335   31.3418 Cl  0  0  0  0  0  0  0  0  0  0  0  0
   29.6728   32.4549   29.5650 C   0  0  0  0  0  0  0  0  0  0  0  0
  1  2  1  0
  2  3  2  0
  2  4  1  0
  4  5  2  0
  5  6  1  0
  6  7  2  0
  7  8  1  0
  8  9  2  0
  9 10  1  0
 10 11  2  0
 11 12  1  0
 12 13  2  0
 13 14  1  0
  9 15  1  0
 15 16  2  0
 15 17  2  0
 15 18  1  0
 18 19  1  0
 19 20  2  0
 20 21  1  0
 21 22  2  0
 22 23  1  0
 23 24  2  0
 24 25  1  0
 22 26  1  0
 13  4  1  0
 24 19  1  0
 12  7  1  0
M  END
>  <AAScore>  (1) 
-6.443732323426127

>  <RootName>  (1) 
./4ZLY/04_DeltaGEst/trajectory_05/rank_01/lead_0350

$$$$
