confid_14
     RDKit          3D

 28 32  0  0  0  0  0  0  0  0999 V2000
   24.2000   26.2400   35.6900 N   0  0  0  0  0  0  0  0  0  0  0  0
   24.8500   26.2800   34.4800 C   0  0  0  0  0  0  0  0  0  0  0  0
   24.3100   25.7400   33.5400 O   0  0  0  0  0  0  0  0  0  0  0  0
   26.1800   26.9700   34.4700 C   0  0  0  0  0  0  0  0  0  0  0  0
   26.6500   27.6000   35.5500 N   0  0  0  0  0  0  0  0  0  0  0  0
   27.7900   28.2700   35.6200 N   0  0  0  0  0  0  0  0  0  0  0  0
   28.5400   28.3000   34.5100 C   0  0  0  0  0  0  0  0  0  0  0  0
   29.7700   28.9400   34.5600 C   0  0  0  0  0  0  0  0  0  0  0  0
   30.7000   28.8900   33.5000 C   0  0  0  0  0  0  0  0  0  0  0  0
   30.3700   28.1400   32.3700 C   0  0  0  0  0  0  0  0  0  0  0  0
   29.1200   27.5200   32.2800 C   0  0  0  0  0  0  0  0  0  0  0  0
   28.2100   27.6100   33.3300 C   0  0  0  0  0  0  0  0  0  0  0  0
   26.9700   26.9700   33.3100 C   0  0  0  0  0  0  0  0  0  0  0  0
   26.5300   26.2400   32.2200 N   0  0  0  0  0  0  0  0  0  0  0  0
   22.7723   26.1932   35.8159 C   0  0  0  0  0  0  0  0  0  0  0  0
   22.1761   25.5824   36.7942 N   0  0  0  0  0  0  0  0  0  0  0  0
   20.7636   25.7613   36.6156 C   0  0  0  0  0  0  0  0  0  0  0  0
   20.5198   26.5204   35.5590 C   0  0  0  0  0  0  0  0  0  0  0  0
   19.2320   26.8145   34.8431 C   0  0  1  0  0  0  0  0  0  0  0  0
   18.1991   27.6087   35.4570 C   0  0  0  0  0  0  0  0  0  0  0  0
   18.3030   28.6520   34.4473 N   0  0  0  0  0  0  0  0  0  0  0  0
   17.6773   29.9453   34.2205 C   0  0  0  0  0  0  0  0  0  0  0  0
   18.4350   30.9611   34.8521 O   0  0  0  0  0  0  0  0  0  0  0  0
   17.9119   31.2325   36.1375 C   0  0  0  0  0  0  0  0  0  0  0  0
   19.5324   27.9913   33.9683 C   0  0  0  0  0  0  0  0  0  0  0  0
   20.6861   28.3809   33.4153 C   0  0  0  0  0  0  0  0  0  0  0  0
   21.9173   27.7027   33.9143 C   0  0  0  0  0  0  0  0  0  0  0  0
   21.7982   26.8487   34.9508 C   0  0  0  0  0  0  0  0  0  0  0  0
  1  2  1  0
  2  3  2  0
  2  4  1  0
  4  5  2  0
  5  6  1  0
  6  7  2  0
  7  8  1  0
  8  9  2  0
  9 10  1  0
 10 11  2  0
 11 12  1  0
 12 13  2  0
 13 14  1  0
  1 15  1  0
 15 16  2  0
 16 17  1  0
 17 18  2  0
 18 19  1  0
 19 20  1  1
 20 21  1  0
 21 22  1  0
 22 23  1  0
 23 24  1  0
 19 25  1  0
 25 26  2  0
 26 27  1  0
 27 28  2  0
 13  4  1  0
 28 15  1  0
 12  7  1  0
 28 18  1  0
 25 21  1  0
M  END
>  <AAScore>  (1) 
1650.8178881238616

>  <RootName>  (1) 
./4ZLY/04_DeltaGEst/trajectory_04/rank_00/lead_0102

$$$$
