confid_6
     RDKit          3D

 27 30  0  0  0  0  0  0  0  0999 V2000
   24.5500   26.3900   36.2500 N   0  0  0  0  0  0  0  0  0  0  0  0
   25.6000   26.1300   35.4000 C   0  0  0  0  0  0  0  0  0  0  0  0
   25.4300   25.4300   34.4200 O   0  0  0  0  0  0  0  0  0  0  0  0
   26.9800   26.6300   35.7100 C   0  0  0  0  0  0  0  0  0  0  0  0
   27.3200   26.8200   36.9800 N   0  0  0  0  0  0  0  0  0  0  0  0
   28.4700   27.4000   37.3100 N   0  0  0  0  0  0  0  0  0  0  0  0
   29.4000   27.6300   36.3700 C   0  0  0  0  0  0  0  0  0  0  0  0
   30.6600   28.0500   36.8000 C   0  0  0  0  0  0  0  0  0  0  0  0
   31.5700   28.3600   35.7800 C   0  0  0  0  0  0  0  0  0  0  0  0
   31.3700   28.1000   34.4300 C   0  0  0  0  0  0  0  0  0  0  0  0
   30.1200   27.5900   34.0500 C   0  0  0  0  0  0  0  0  0  0  0  0
   29.1500   27.3400   35.0300 C   0  0  0  0  0  0  0  0  0  0  0  0
   27.8800   26.8900   34.6600 C   0  0  0  0  0  0  0  0  0  0  0  0
   27.4800   26.6100   33.3700 N   0  0  0  0  0  0  0  0  0  0  0  0
   30.9726   28.2884   38.1821 N   0  0  0  0  0  0  0  0  0  0  0  0
   32.1298   27.6127   38.7962 C   0  0  0  0  0  0  0  0  0  0  0  0
   31.7341   26.9936   40.1509 C   0  0  0  0  0  0  0  0  0  0  0  0
   30.8800   27.9535   40.9240 C   0  0  0  0  0  0  0  0  0  0  0  0
   30.4730   27.9265   42.2476 C   0  0  0  0  0  0  0  0  0  0  0  0
   30.8288   26.8926   43.2728 C   0  0  0  0  0  0  0  0  0  0  0  0
   29.8836   25.6983   43.1801 C   0  0  0  0  0  0  0  0  0  0  0  0
   29.5840   28.9224   42.4602 N   0  0  0  0  0  0  0  0  0  0  0  0
   29.4194   29.5705   41.3124 N   0  0  0  0  0  0  0  0  0  0  0  0
   30.1843   28.9931   40.3614 C   0  0  0  0  0  0  0  0  0  0  0  0
   30.3078   29.3784   38.9164 C   0  0  0  0  0  0  0  0  0  0  0  0
   28.5575   30.7421   41.1632 C   0  0  0  0  0  0  0  0  0  0  0  0
   29.3783   32.0221   41.2818 C   0  0  0  0  0  0  0  0  0  0  0  0
  1  2  1  0
  2  3  2  0
  2  4  1  0
  4  5  2  0
  5  6  1  0
  6  7  2  0
  7  8  1  0
  8  9  2  0
  9 10  1  0
 10 11  2  0
 11 12  1  0
 12 13  2  0
 13 14  1  0
  8 15  1  0
 15 16  1  0
 16 17  1  0
 17 18  1  0
 18 19  1  0
 19 20  1  0
 20 21  1  0
 19 22  2  0
 22 23  1  0
 23 24  1  0
 24 25  1  0
 23 26  1  0
 26 27  1  0
 13  4  1  0
 25 15  1  0
 12  7  1  0
 24 18  2  0
M  END
>  <AAScore>  (1) 
3.891935100079167

>  <RootName>  (1) 
./4ZLY/04_DeltaGEst/trajectory_01/rank_01/lead_0308

$$$$
