confid_6
     RDKit          3D

 28 31  0  0  0  0  0  0  0  0999 V2000
   24.5700   26.8800   35.5900 N   0  0  0  0  0  0  0  0  0  0  0  0
   25.5000   26.4000   34.6900 C   0  0  0  0  0  0  0  0  0  0  0  0
   25.1700   25.5200   33.9100 O   0  0  0  0  0  0  0  0  0  0  0  0
   26.8400   27.0200   34.7400 C   0  0  0  0  0  0  0  0  0  0  0  0
   27.3800   27.2800   35.9400 N   0  0  0  0  0  0  0  0  0  0  0  0
   28.6200   27.7400   36.0300 N   0  0  0  0  0  0  0  0  0  0  0  0
   29.3800   28.0000   34.9600 C   0  0  0  0  0  0  0  0  0  0  0  0
   30.6700   28.5000   35.1300 C   0  0  0  0  0  0  0  0  0  0  0  0
   31.5400   28.6100   34.0300 C   0  0  0  0  0  0  0  0  0  0  0  0
   31.0900   28.2200   32.7700 C   0  0  0  0  0  0  0  0  0  0  0  0
   29.8000   27.7000   32.6000 C   0  0  0  0  0  0  0  0  0  0  0  0
   28.9600   27.5500   33.7100 C   0  0  0  0  0  0  0  0  0  0  0  0
   27.6600   27.0300   33.5900 C   0  0  0  0  0  0  0  0  0  0  0  0
   27.1600   26.7400   32.3400 N   0  0  0  0  0  0  0  0  0  0  0  0
   23.1475   26.7086   35.4613 C   0  0  0  0  0  0  0  0  0  0  0  0
   22.3883   26.6339   36.5883 N   0  0  0  0  0  0  0  0  0  0  0  0
   21.0376   26.4926   36.5433 C   0  0  0  0  0  0  0  0  0  0  0  0
   20.3777   26.4214   35.3106 C   0  0  0  0  0  0  0  0  0  0  0  0
   18.8748   26.3231   35.2573 C   0  0  0  0  0  0  0  0  0  0  0  0
   18.3819   25.9239   33.9867 O   0  0  0  0  0  0  0  0  0  0  0  0
   18.9170   26.6855   32.9064 C   0  0  2  0  0  0  0  0  0  0  0  0
   18.6067   28.2006   33.0463 C   0  0  0  0  0  0  0  0  0  0  0  0
   18.2486   26.1704   31.6128 C   0  0  0  0  0  0  0  0  0  0  0  0
   16.8474   26.3440   31.6929 O   0  0  0  0  0  0  0  0  0  0  0  0
   16.2526   25.9234   30.4857 C   0  0  0  0  0  0  0  0  0  0  0  0
   20.4456   26.4493   32.7961 C   0  0  0  0  0  0  0  0  0  0  0  0
   21.1240   26.5476   34.1320 C   0  0  0  0  0  0  0  0  0  0  0  0
   22.5165   26.6835   34.2054 C   0  0  0  0  0  0  0  0  0  0  0  0
  1  2  1  0
  2  3  2  0
  2  4  1  0
  4  5  2  0
  5  6  1  0
  6  7  2  0
  7  8  1  0
  8  9  2  0
  9 10  1  0
 10 11  2  0
 11 12  1  0
 12 13  2  0
 13 14  1  0
  1 15  1  0
 15 16  2  0
 16 17  1  0
 17 18  2  0
 18 19  1  0
 19 20  1  0
 20 21  1  0
 21 22  1  1
 21 23  1  0
 23 24  1  0
 24 25  1  0
 21 26  1  0
 26 27  1  0
 27 28  2  0
 13  4  1  0
 28 15  1  0
 12  7  1  0
 27 18  1  0
M  END
>  <AAScore>  (1) 
495.5423408247999

>  <RootName>  (1) 
./4ZLY/04_DeltaGEst/trajectory_05/rank_00/lead_0470

$$$$
