confid_13
     RDKit          3D

 27 30  0  0  0  0  0  0  0  0999 V2000
   25.3300   26.2600   34.7600 N   0  0  0  0  0  0  0  0  0  0  0  0
   26.1200   25.9200   33.6900 C   0  0  0  0  0  0  0  0  0  0  0  0
   25.6300   25.1100   32.9400 O   0  0  0  0  0  0  0  0  0  0  0  0
   27.5200   26.3800   33.4600 C   0  0  0  0  0  0  0  0  0  0  0  0
   28.1600   26.6300   34.6100 N   0  0  0  0  0  0  0  0  0  0  0  0
   29.4800   26.8500   34.5700 N   0  0  0  0  0  0  0  0  0  0  0  0
   30.1900   26.7800   33.4400 C   0  0  0  0  0  0  0  0  0  0  0  0
   31.5600   27.0500   33.5000 C   0  0  0  0  0  0  0  0  0  0  0  0
   32.2700   27.2400   32.3100 C   0  0  0  0  0  0  0  0  0  0  0  0
   31.6100   27.2500   31.0800 C   0  0  0  0  0  0  0  0  0  0  0  0
   30.2700   26.8700   31.0600 C   0  0  0  0  0  0  0  0  0  0  0  0
   29.5100   26.6900   32.2300 C   0  0  0  0  0  0  0  0  0  0  0  0
   28.1400   26.4100   32.2000 C   0  0  0  0  0  0  0  0  0  0  0  0
   27.4300   26.1300   31.0500 N   0  0  0  0  0  0  0  0  0  0  0  0
   23.9637   25.8587   34.9690 C   0  0  0  0  0  0  0  0  0  0  0  0
   23.2451   25.1077   34.1020 N   0  0  0  0  0  0  0  0  0  0  0  0
   22.0563   25.0199   34.7305 C   0  0  0  0  0  0  0  0  0  0  0  0
   20.8761   24.2824   34.1772 C   0  0  0  0  0  0  0  0  0  0  0  0
   20.3607   23.2316   35.1655 C   0  0  0  0  0  0  0  0  0  0  0  0
   19.5792   23.8645   36.2523 N   0  0  0  0  0  0  0  0  0  0  0  0
   20.4326   24.4728   37.2978 C   0  0  0  0  0  0  0  0  0  0  0  0
   20.9617   25.8365   36.8441 C   0  0  0  0  0  0  0  0  0  0  0  0
   22.0658   25.6812   35.9016 N   0  0  0  0  0  0  0  0  0  0  0  0
   23.2609   26.2186   36.0614 N   0  0  0  0  0  0  0  0  0  0  0  0
   18.5653   22.9459   36.8214 C   0  0  0  0  0  0  0  0  0  0  0  0
   19.1707   21.7106   37.5197 C   0  0  0  0  0  0  0  0  0  0  0  0
   18.0749   20.8112   38.0840 C   0  0  0  0  0  0  0  0  0  0  0  0
  1  2  1  0
  2  3  2  0
  2  4  1  0
  4  5  2  0
  5  6  1  0
  6  7  2  0
  7  8  1  0
  8  9  2  0
  9 10  1  0
 10 11  2  0
 11 12  1  0
 12 13  2  0
 13 14  1  0
  1 15  1  0
 15 16  1  0
 16 17  2  0
 17 18  1  0
 18 19  1  0
 19 20  1  0
 20 21  1  0
 21 22  1  0
 22 23  1  0
 23 24  1  0
 20 25  1  0
 25 26  1  0
 26 27  1  0
 13  4  1  0
 24 15  2  0
 12  7  1  0
 23 17  1  0
M  END
>  <AAScore>  (1) 
112964.8578211673

>  <RootName>  (1) 
./4ZLY/04_DeltaGEst/trajectory_03/rank_00/lead_0076

$$$$
