confid_14
     RDKit          3D

 30 34  0  0  0  0  0  0  0  0999 V2000
   24.2000   26.2400   35.6900 N   0  0  0  0  0  0  0  0  0  0  0  0
   24.8500   26.2800   34.4800 C   0  0  0  0  0  0  0  0  0  0  0  0
   24.3100   25.7400   33.5400 O   0  0  0  0  0  0  0  0  0  0  0  0
   26.1800   26.9700   34.4700 C   0  0  0  0  0  0  0  0  0  0  0  0
   26.6500   27.6000   35.5500 N   0  0  0  0  0  0  0  0  0  0  0  0
   27.7900   28.2700   35.6200 N   0  0  0  0  0  0  0  0  0  0  0  0
   28.5400   28.3000   34.5100 C   0  0  0  0  0  0  0  0  0  0  0  0
   29.7700   28.9400   34.5600 C   0  0  0  0  0  0  0  0  0  0  0  0
   30.7000   28.8900   33.5000 C   0  0  0  0  0  0  0  0  0  0  0  0
   30.3700   28.1400   32.3700 C   0  0  0  0  0  0  0  0  0  0  0  0
   29.1200   27.5200   32.2800 C   0  0  0  0  0  0  0  0  0  0  0  0
   28.2100   27.6100   33.3300 C   0  0  0  0  0  0  0  0  0  0  0  0
   26.9700   26.9700   33.3100 C   0  0  0  0  0  0  0  0  0  0  0  0
   26.5300   26.2400   32.2200 N   0  0  0  0  0  0  0  0  0  0  0  0
   30.1465   29.6552   35.7491 N   0  0  0  0  0  0  0  0  0  0  0  0
   30.5369   29.0004   37.0005 C   0  0  0  0  0  0  0  0  0  0  0  0
   31.2518   30.0815   37.8480 C   0  0  0  0  0  0  0  0  0  0  0  0
   31.2404   31.2769   36.9615 C   0  0  0  0  0  0  0  0  0  0  0  0
   31.7798   32.5382   37.2107 C   0  0  0  0  0  0  0  0  0  0  0  0
   31.6569   33.5282   36.2227 C   0  0  0  0  0  0  0  0  0  0  0  0
   30.9849   33.2512   35.0094 C   0  0  0  0  0  0  0  0  0  0  0  0
   30.8681   34.2846   33.9619 C   0  0  0  0  0  0  0  0  0  0  0  0
   31.1024   33.9656   32.7645 O   0  0  0  0  0  0  0  0  0  0  0  0
   30.4848   35.6363   34.2745 N   0  0  0  0  0  0  0  0  0  0  0  0
   29.6257   35.9949   35.3923 C   0  0  0  0  0  0  0  0  0  0  0  0
   29.4131   37.4985   35.2829 C   0  0  0  0  0  0  0  0  0  0  0  0
   29.8148   37.8776   33.8606 C   0  0  0  0  0  0  0  0  0  0  0  0
   30.6943   36.7416   33.3542 C   0  0  0  0  0  0  0  0  0  0  0  0
   30.4683   31.9595   34.7813 C   0  0  0  0  0  0  0  0  0  0  0  0
   30.6133   30.9937   35.7816 C   0  0  0  0  0  0  0  0  0  0  0  0
  1  2  1  0
  2  3  2  0
  2  4  1  0
  4  5  2  0
  5  6  1  0
  6  7  2  0
  7  8  1  0
  8  9  2  0
  9 10  1  0
 10 11  2  0
 11 12  1  0
 12 13  2  0
 13 14  1  0
  8 15  1  0
 15 16  1  0
 16 17  1  0
 17 18  1  0
 18 19  2  0
 19 20  1  0
 20 21  2  0
 21 22  1  0
 22 23  2  0
 22 24  1  0
 24 25  1  0
 25 26  1  0
 26 27  1  0
 27 28  1  0
 21 29  1  0
 29 30  2  0
 13  4  1  0
 30 15  1  0
 12  7  1  0
 30 18  1  0
 28 24  1  0
M  END
>  <AAScore>  (1) 
99.06388692184088

>  <RootName>  (1) 
./4ZLY/04_DeltaGEst/trajectory_04/rank_01/lead_0342

$$$$
