confid_0
     RDKit          3D

 27 30  0  0  0  0  0  0  0  0999 V2000
   24.4800   26.1000   36.1300 N   0  0  0  0  0  0  0  0  0  0  0  0
   25.2500   26.2500   34.9900 C   0  0  0  0  0  0  0  0  0  0  0  0
   24.7400   25.7600   33.9900 O   0  0  0  0  0  0  0  0  0  0  0  0
   26.5900   26.8900   34.9600 C   0  0  0  0  0  0  0  0  0  0  0  0
   27.0600   27.2400   36.1600 N   0  0  0  0  0  0  0  0  0  0  0  0
   28.3000   27.7100   36.2400 N   0  0  0  0  0  0  0  0  0  0  0  0
   29.0500   27.9600   35.1500 C   0  0  0  0  0  0  0  0  0  0  0  0
   30.3400   28.4900   35.2600 C   0  0  0  0  0  0  0  0  0  0  0  0
   31.1100   28.8200   34.1400 C   0  0  0  0  0  0  0  0  0  0  0  0
   30.5200   28.6700   32.8800 C   0  0  0  0  0  0  0  0  0  0  0  0
   29.2900   28.0200   32.7700 C   0  0  0  0  0  0  0  0  0  0  0  0
   28.5200   27.7100   33.8900 C   0  0  0  0  0  0  0  0  0  0  0  0
   27.2700   27.0800   33.7600 C   0  0  0  0  0  0  0  0  0  0  0  0
   26.7500   26.8800   32.4900 N   0  0  0  0  0  0  0  0  0  0  0  0
   23.4794   25.0815   36.3342 C   0  0  0  0  0  0  0  0  0  0  0  0
   23.5095   24.0061   35.5997 N   0  0  0  0  0  0  0  0  0  0  0  0
   22.6726   22.8401   35.5958 C   0  0  0  0  0  0  0  0  0  0  0  0
   21.3758   22.8281   35.9375 C   0  0  0  0  0  0  0  0  0  0  0  0
   20.6258   23.9952   36.5064 C   0  0  2  0  0  0  0  0  0  0  0  0
   20.0659   24.8892   35.3787 C   0  0  0  0  0  0  0  0  0  0  0  0
   19.5117   24.0923   34.1608 C   0  0  0  0  0  0  0  0  0  0  0  0
   18.9842   22.6814   34.5005 C   0  0  0  0  0  0  0  0  0  0  0  0
   20.3059   21.6671   35.1648 S   0  0  0  0  0  6  0  0  0  0  0  0
   19.7762   20.6840   36.1699 O   0  0  0  0  0  0  0  0  0  0  0  0
   20.9913   20.9366   34.0432 O   0  0  0  0  0  0  0  0  0  0  0  0
   21.3479   24.7487   37.5848 C   0  0  0  0  0  0  0  0  0  0  0  0
   22.5829   25.2347   37.4935 C   0  0  0  0  0  0  0  0  0  0  0  0
  1  2  1  0
  2  3  2  0
  2  4  1  0
  4  5  2  0
  5  6  1  0
  6  7  2  0
  7  8  1  0
  8  9  2  0
  9 10  1  0
 10 11  2  0
 11 12  1  0
 12 13  2  0
 13 14  1  0
  1 15  1  0
 15 16  2  0
 16 17  1  0
 17 18  2  0
 18 19  1  0
 19 20  1  6
 20 21  1  0
 21 22  1  0
 22 23  1  0
 23 24  2  0
 23 25  2  0
 19 26  1  0
 26 27  2  0
 13  4  1  0
 27 15  1  0
 12  7  1  0
 23 18  1  0
M  END
>  <AAScore>  (1) 
2749.7594831058414

>  <RootName>  (1) 
./4ZLY/04_DeltaGEst/trajectory_00/rank_01/lead_0107

$$$$
