confid_6
     RDKit          3D

 29 32  0  0  0  0  0  0  0  0999 V2000
   24.5700   26.8800   35.5900 N   0  0  0  0  0  0  0  0  0  0  0  0
   25.5000   26.4000   34.6900 C   0  0  0  0  0  0  0  0  0  0  0  0
   25.1700   25.5200   33.9100 O   0  0  0  0  0  0  0  0  0  0  0  0
   26.8400   27.0200   34.7400 C   0  0  0  0  0  0  0  0  0  0  0  0
   27.3800   27.2800   35.9400 N   0  0  0  0  0  0  0  0  0  0  0  0
   28.6200   27.7400   36.0300 N   0  0  0  0  0  0  0  0  0  0  0  0
   29.3800   28.0000   34.9600 C   0  0  0  0  0  0  0  0  0  0  0  0
   30.6700   28.5000   35.1300 C   0  0  0  0  0  0  0  0  0  0  0  0
   31.5400   28.6100   34.0300 C   0  0  0  0  0  0  0  0  0  0  0  0
   31.0900   28.2200   32.7700 C   0  0  0  0  0  0  0  0  0  0  0  0
   29.8000   27.7000   32.6000 C   0  0  0  0  0  0  0  0  0  0  0  0
   28.9600   27.5500   33.7100 C   0  0  0  0  0  0  0  0  0  0  0  0
   27.6600   27.0300   33.5900 C   0  0  0  0  0  0  0  0  0  0  0  0
   27.1600   26.7400   32.3400 N   0  0  0  0  0  0  0  0  0  0  0  0
   23.2591   26.3163   35.7544 C   0  0  0  0  0  0  0  0  0  0  0  0
   22.5371   25.9320   34.7539 N   0  0  0  0  0  0  0  0  0  0  0  0
   21.3394   25.3989   35.2892 C   0  0  0  0  0  0  0  0  0  0  0  0
   21.3295   25.4349   36.6158 C   0  0  0  0  0  0  0  0  0  0  0  0
   20.1386   24.9750   37.4200 C   0  0  0  0  0  0  0  0  0  0  0  0
   20.1633   25.3528   38.9036 C   0  0  0  0  0  0  0  0  0  0  0  0
   20.3014   26.8051   39.0755 N   0  0  0  0  0  0  0  0  0  0  0  0
   21.7046   27.2099   39.2257 C   0  0  0  0  0  0  0  0  0  0  0  0
   22.3970   27.3658   37.8664 C   0  0  0  0  0  0  0  0  0  0  0  0
   22.6275   26.0398   37.0982 C   0  0  2  0  0  0  0  0  0  0  0  0
   23.5016   25.0030   37.8432 C   0  0  0  0  0  0  0  0  0  0  0  0
   24.7293   25.5884   38.2341 O   0  0  0  0  0  0  0  0  0  0  0  0
   25.6771   24.5754   38.4966 C   0  0  0  0  0  0  0  0  0  0  0  0
   26.9161   25.1930   39.1463 C   0  0  0  0  0  0  0  0  0  0  0  0
   28.0132   24.1486   39.3411 C   0  0  0  0  0  0  0  0  0  0  0  0
  1  2  1  0
  2  3  2  0
  2  4  1  0
  4  5  2  0
  5  6  1  0
  6  7  2  0
  7  8  1  0
  8  9  2  0
  9 10  1  0
 10 11  2  0
 11 12  1  0
 12 13  2  0
 13 14  1  0
  1 15  1  0
 15 16  2  0
 16 17  1  0
 17 18  2  0
 18 19  1  0
 19 20  1  0
 20 21  1  0
 21 22  1  0
 22 23  1  0
 23 24  1  0
 24 25  1  1
 25 26  1  0
 26 27  1  0
 27 28  1  0
 28 29  1  0
 13  4  1  0
 24 15  1  0
 12  7  1  0
 24 18  1  0
M  END
>  <AAScore>  (1) 
1149.095155436177

>  <RootName>  (1) 
./4ZLY/04_DeltaGEst/trajectory_05/rank_00/lead_0112

$$$$
