confid_8
     RDKit          3D

 28 31  0  0  0  0  0  0  0  0999 V2000
   24.6900   26.1200   35.5300 N   0  0  0  0  0  0  0  0  0  0  0  0
   25.6600   25.6700   34.6600 C   0  0  0  0  0  0  0  0  0  0  0  0
   25.2400   25.0100   33.7200 O   0  0  0  0  0  0  0  0  0  0  0  0
   27.0300   26.2200   34.8800 C   0  0  0  0  0  0  0  0  0  0  0  0
   27.3500   26.7300   36.0700 N   0  0  0  0  0  0  0  0  0  0  0  0
   28.5700   27.1800   36.3300 N   0  0  0  0  0  0  0  0  0  0  0  0
   29.5300   27.1100   35.3900 C   0  0  0  0  0  0  0  0  0  0  0  0
   30.8300   27.5700   35.6500 C   0  0  0  0  0  0  0  0  0  0  0  0
   31.8500   27.5400   34.6900 C   0  0  0  0  0  0  0  0  0  0  0  0
   31.5100   27.1200   33.4000 C   0  0  0  0  0  0  0  0  0  0  0  0
   30.2200   26.6300   33.1100 C   0  0  0  0  0  0  0  0  0  0  0  0
   29.2400   26.6600   34.1000 C   0  0  0  0  0  0  0  0  0  0  0  0
   27.9300   26.2600   33.8100 C   0  0  0  0  0  0  0  0  0  0  0  0
   27.5200   25.7100   32.6100 N   0  0  0  0  0  0  0  0  0  0  0  0
   23.5142   25.3703   35.8785 C   0  0  0  0  0  0  0  0  0  0  0  0
   23.2942   24.0123   35.6831 C   0  0  0  0  0  0  0  0  0  0  0  0
   22.1020   23.6848   36.2201 N   0  0  0  0  0  0  0  0  0  0  0  0
   21.5213   22.3504   36.3685 C   0  0  0  0  0  0  0  0  0  0  0  0
   19.9920   22.4543   36.5387 C   0  0  0  0  0  0  0  0  0  0  0  0
   19.6284   23.4709   37.5511 N   0  0  0  0  0  0  0  0  0  0  0  0
   20.3233   24.7352   37.5140 C   0  0  0  0  0  0  0  0  0  0  0  0
   19.8749   25.7524   38.1083 O   0  0  0  0  0  0  0  0  0  0  0  0
   21.5854   24.7919   36.7780 C   0  0  0  0  0  0  0  0  0  0  0  0
   22.4317   25.8633   36.5846 C   0  0  0  0  0  0  0  0  0  0  0  0
   22.2639   27.1297   37.0387 F   0  0  0  0  0  0  0  0  0  0  0  0
   18.6298   23.1899   38.6010 C   0  0  0  0  0  0  0  0  0  0  0  0
   17.2862   22.7802   37.9877 C   0  0  0  0  0  0  0  0  0  0  0  0
   19.1501   22.1258   39.5727 C   0  0  0  0  0  0  0  0  0  0  0  0
  1  2  1  0
  2  3  2  0
  2  4  1  0
  4  5  2  0
  5  6  1  0
  6  7  2  0
  7  8  1  0
  8  9  2  0
  9 10  1  0
 10 11  2  0
 11 12  1  0
 12 13  2  0
 13 14  1  0
  1 15  1  0
 15 16  2  0
 16 17  1  0
 17 18  1  0
 18 19  1  0
 19 20  1  0
 20 21  1  0
 21 22  2  0
 21 23  1  0
 23 24  2  0
 24 25  1  0
 20 26  1  0
 26 27  1  0
 26 28  1  0
 13  4  1  0
 24 15  1  0
 12  7  1  0
 23 17  1  0
M  END
>  <AAScore>  (1) 
1785.5441945848586

>  <RootName>  (1) 
./4ZLY/04_DeltaGEst/trajectory_02/rank_00/lead_0319

$$$$
