confid_12
     RDKit          3D

 27 30  0  0  0  0  0  0  0  0999 V2000
   24.5700   26.8800   35.5900 N   0  0  0  0  0  0  0  0  0  0  0  0
   25.5000   26.4000   34.6900 C   0  0  0  0  0  0  0  0  0  0  0  0
   25.1700   25.5200   33.9100 O   0  0  0  0  0  0  0  0  0  0  0  0
   26.8400   27.0200   34.7400 C   0  0  0  0  0  0  0  0  0  0  0  0
   27.3800   27.2800   35.9400 N   0  0  0  0  0  0  0  0  0  0  0  0
   28.6200   27.7400   36.0300 N   0  0  0  0  0  0  0  0  0  0  0  0
   29.3800   28.0000   34.9600 C   0  0  0  0  0  0  0  0  0  0  0  0
   30.6700   28.5000   35.1300 C   0  0  0  0  0  0  0  0  0  0  0  0
   31.5400   28.6100   34.0300 C   0  0  0  0  0  0  0  0  0  0  0  0
   31.0900   28.2200   32.7700 C   0  0  0  0  0  0  0  0  0  0  0  0
   29.8000   27.7000   32.6000 C   0  0  0  0  0  0  0  0  0  0  0  0
   28.9600   27.5500   33.7100 C   0  0  0  0  0  0  0  0  0  0  0  0
   27.6600   27.0300   33.5900 C   0  0  0  0  0  0  0  0  0  0  0  0
   27.1600   26.7400   32.3400 N   0  0  0  0  0  0  0  0  0  0  0  0
   32.8822   29.1160   34.2030 N   0  0  0  0  0  0  0  0  0  0  0  0
   33.9979   28.4467   33.5115 C   0  0  0  0  0  0  0  0  0  0  0  0
   35.3469   28.8368   34.1161 C   0  0  0  0  0  0  0  0  0  0  0  0
   35.4344   30.2947   34.2215 N   0  0  0  0  0  0  0  0  0  0  0  0
   34.3002   31.0781   34.7250 C   0  0  0  0  0  0  0  0  0  0  0  0
   33.1520   30.1743   35.1904 C   0  0  0  0  0  0  0  0  0  0  0  0
   36.5791   30.9792   33.6934 C   0  0  0  0  0  0  0  0  0  0  0  0
   37.5838   31.4885   34.5434 C   0  0  0  0  0  0  0  0  0  0  0  0
   37.4930   31.3627   36.0397 C   0  0  0  0  0  0  0  0  0  0  0  0
   38.6640   32.1766   33.9689 C   0  0  0  0  0  0  0  0  0  0  0  0
   38.7515   32.3145   32.6188 N   0  0  0  0  0  0  0  0  0  0  0  0
   37.8051   31.8093   31.7849 C   0  0  0  0  0  0  0  0  0  0  0  0
   36.7039   31.1314   32.3070 C   0  0  0  0  0  0  0  0  0  0  0  0
  1  2  1  0
  2  3  2  0
  2  4  1  0
  4  5  2  0
  5  6  1  0
  6  7  2  0
  7  8  1  0
  8  9  2  0
  9 10  1  0
 10 11  2  0
 11 12  1  0
 12 13  2  0
 13 14  1  0
  9 15  1  0
 15 16  1  0
 16 17  1  0
 17 18  1  0
 18 19  1  0
 19 20  1  0
 18 21  1  0
 21 22  2  0
 22 23  1  0
 22 24  1  0
 24 25  2  0
 25 26  1  0
 26 27  2  0
 13  4  1  0
 20 15  1  0
 27 21  1  0
 12  7  1  0
M  END
>  <AAScore>  (1) 
-5.955607320288066

>  <RootName>  (1) 
./4ZLY/04_DeltaGEst/trajectory_05/rank_01/lead_0196

$$$$
