confid_13
     RDKit          3D

 29 31  0  0  0  0  0  0  0  0999 V2000
   24.5700   26.8800   35.5900 N   0  0  0  0  0  0  0  0  0  0  0  0
   25.5000   26.4000   34.6900 C   0  0  0  0  0  0  0  0  0  0  0  0
   25.1700   25.5200   33.9100 O   0  0  0  0  0  0  0  0  0  0  0  0
   26.8400   27.0200   34.7400 C   0  0  0  0  0  0  0  0  0  0  0  0
   27.3800   27.2800   35.9400 N   0  0  0  0  0  0  0  0  0  0  0  0
   28.6200   27.7400   36.0300 N   0  0  0  0  0  0  0  0  0  0  0  0
   29.3800   28.0000   34.9600 C   0  0  0  0  0  0  0  0  0  0  0  0
   30.6700   28.5000   35.1300 C   0  0  0  0  0  0  0  0  0  0  0  0
   31.5400   28.6100   34.0300 C   0  0  0  0  0  0  0  0  0  0  0  0
   31.0900   28.2200   32.7700 C   0  0  0  0  0  0  0  0  0  0  0  0
   29.8000   27.7000   32.6000 C   0  0  0  0  0  0  0  0  0  0  0  0
   28.9600   27.5500   33.7100 C   0  0  0  0  0  0  0  0  0  0  0  0
   27.6600   27.0300   33.5900 C   0  0  0  0  0  0  0  0  0  0  0  0
   27.1600   26.7400   32.3400 N   0  0  0  0  0  0  0  0  0  0  0  0
   33.1873   29.1976   34.2370 S   0  0  0  0  0  6  0  0  0  0  0  0
   33.4976   30.1807   33.1434 O   0  0  0  0  0  0  0  0  0  0  0  0
   33.3230   29.9004   35.5592 O   0  0  0  0  0  0  0  0  0  0  0  0
   34.3513   27.8396   34.1534 C   0  0  0  0  0  0  0  0  0  0  0  0
   33.9612   26.6701   35.0849 C   0  0  2  0  0  0  0  0  0  0  0  0
   34.0731   27.0067   36.5718 C   0  0  0  0  0  0  0  0  0  0  0  0
   34.1923   25.6695   37.2991 C   0  0  0  0  0  0  0  0  0  0  0  0
   34.4845   24.6101   36.2221 C   0  0  2  0  0  0  0  0  0  0  0  0
   35.4667   23.5863   36.6664 N   0  0  0  0  0  0  0  0  0  0  0  0
   36.8120   23.9499   37.1431 C   0  0  0  0  0  0  0  0  0  0  0  0
   35.2927   22.2019   36.1887 C   0  0  0  0  0  0  0  0  0  0  0  0
   35.7765   22.0111   34.7446 C   0  0  0  0  0  0  0  0  0  0  0  0
   35.6052   20.5623   34.2972 C   0  0  0  0  0  0  0  0  0  0  0  0
   34.7829   25.3763   34.9069 C   0  0  2  0  0  0  0  0  0  0  0  0
   36.2730   25.6443   34.6200 C   0  0  0  0  0  0  0  0  0  0  0  0
  1  2  1  0
  2  3  2  0
  2  4  1  0
  4  5  2  0
  5  6  1  0
  6  7  2  0
  7  8  1  0
  8  9  2  0
  9 10  1  0
 10 11  2  0
 11 12  1  0
 12 13  2  0
 13 14  1  0
  9 15  1  0
 15 16  2  0
 15 17  2  0
 15 18  1  0
 19 18  1  6
 19 20  1  0
 20 21  1  0
 21 22  1  0
 22 23  1  1
 23 24  1  0
 23 25  1  0
 25 26  1  0
 26 27  1  0
 22 28  1  0
 28 29  1  1
 13  4  1  0
 28 19  1  0
 12  7  1  0
M  END
>  <AAScore>  (1) 
1100.868392938774

>  <RootName>  (1) 
./4ZLY/04_DeltaGEst/trajectory_05/rank_01/lead_0411

$$$$
