confid_4
     RDKit          3D

 27 30  0  0  0  0  0  0  0  0999 V2000
   24.5500   26.3900   36.2500 N   0  0  0  0  0  0  0  0  0  0  0  0
   25.6000   26.1300   35.4000 C   0  0  0  0  0  0  0  0  0  0  0  0
   25.4300   25.4300   34.4200 O   0  0  0  0  0  0  0  0  0  0  0  0
   26.9800   26.6300   35.7100 C   0  0  0  0  0  0  0  0  0  0  0  0
   27.3200   26.8200   36.9800 N   0  0  0  0  0  0  0  0  0  0  0  0
   28.4700   27.4000   37.3100 N   0  0  0  0  0  0  0  0  0  0  0  0
   29.4000   27.6300   36.3700 C   0  0  0  0  0  0  0  0  0  0  0  0
   30.6600   28.0500   36.8000 C   0  0  0  0  0  0  0  0  0  0  0  0
   31.5700   28.3600   35.7800 C   0  0  0  0  0  0  0  0  0  0  0  0
   31.3700   28.1000   34.4300 C   0  0  0  0  0  0  0  0  0  0  0  0
   30.1200   27.5900   34.0500 C   0  0  0  0  0  0  0  0  0  0  0  0
   29.1500   27.3400   35.0300 C   0  0  0  0  0  0  0  0  0  0  0  0
   27.8800   26.8900   34.6600 C   0  0  0  0  0  0  0  0  0  0  0  0
   27.4800   26.6100   33.3700 N   0  0  0  0  0  0  0  0  0  0  0  0
   30.9695   28.2820   38.1844 N   0  0  0  0  0  0  0  0  0  0  0  0
   31.4269   29.6086   38.6009 C   0  0  0  0  0  0  0  0  0  0  0  0
   30.9094   29.9091   40.0008 C   0  0  0  0  0  0  0  0  0  0  0  0
   31.2884   28.8086   40.9530 C   0  0  0  0  0  0  0  0  0  0  0  0
   31.4662   29.1062   42.3100 C   0  0  0  0  0  0  0  0  0  0  0  0
   31.7847   28.0984   43.2163 C   0  0  0  0  0  0  0  0  0  0  0  0
   31.9101   26.7764   42.7886 C   0  0  0  0  0  0  0  0  0  0  0  0
   32.2180   25.8354   43.7151 F   0  0  0  0  0  0  0  0  0  0  0  0
   31.7121   26.4473   41.4273 C   0  0  0  0  0  0  0  0  0  0  0  0
   31.4021   27.4727   40.5066 C   0  0  0  0  0  0  0  0  0  0  0  0
   31.2034   27.1143   39.0456 C   0  0  0  0  0  0  0  0  0  0  0  0
   31.8074   25.1301   40.9393 O   0  0  0  0  0  0  0  0  0  0  0  0
   32.0980   23.9716   41.7145 C   0  0  0  0  0  0  0  0  0  0  0  0
  1  2  1  0
  2  3  2  0
  2  4  1  0
  4  5  2  0
  5  6  1  0
  6  7  2  0
  7  8  1  0
  8  9  2  0
  9 10  1  0
 10 11  2  0
 11 12  1  0
 12 13  2  0
 13 14  1  0
  8 15  1  0
 15 16  1  0
 16 17  1  0
 17 18  1  0
 18 19  2  0
 19 20  1  0
 20 21  2  0
 21 22  1  0
 21 23  1  0
 23 24  2  0
 24 25  1  0
 23 26  1  0
 26 27  1  0
 13  4  1  0
 25 15  1  0
 12  7  1  0
 24 18  1  0
M  END
>  <AAScore>  (1) 
14.539395461863888

>  <RootName>  (1) 
./4ZLY/04_DeltaGEst/trajectory_01/rank_01/lead_0451

$$$$
