confid_2
     RDKit          3D

 28 31  0  0  0  0  0  0  0  0999 V2000
   24.6900   26.1200   35.5300 N   0  0  0  0  0  0  0  0  0  0  0  0
   25.6600   25.6700   34.6600 C   0  0  0  0  0  0  0  0  0  0  0  0
   25.2400   25.0100   33.7200 O   0  0  0  0  0  0  0  0  0  0  0  0
   27.0300   26.2200   34.8800 C   0  0  0  0  0  0  0  0  0  0  0  0
   27.3500   26.7300   36.0700 N   0  0  0  0  0  0  0  0  0  0  0  0
   28.5700   27.1800   36.3300 N   0  0  0  0  0  0  0  0  0  0  0  0
   29.5300   27.1100   35.3900 C   0  0  0  0  0  0  0  0  0  0  0  0
   30.8300   27.5700   35.6500 C   0  0  0  0  0  0  0  0  0  0  0  0
   31.8500   27.5400   34.6900 C   0  0  0  0  0  0  0  0  0  0  0  0
   31.5100   27.1200   33.4000 C   0  0  0  0  0  0  0  0  0  0  0  0
   30.2200   26.6300   33.1100 C   0  0  0  0  0  0  0  0  0  0  0  0
   29.2400   26.6600   34.1000 C   0  0  0  0  0  0  0  0  0  0  0  0
   27.9300   26.2600   33.8100 C   0  0  0  0  0  0  0  0  0  0  0  0
   27.5200   25.7100   32.6100 N   0  0  0  0  0  0  0  0  0  0  0  0
   23.5416   25.3396   35.9142 C   0  0  0  0  0  0  0  0  0  0  0  0
   23.4737   24.0181   35.5995 N   0  0  0  0  0  0  0  0  0  0  0  0
   22.4272   23.2395   35.9713 C   0  0  0  0  0  0  0  0  0  0  0  0
   21.3716   23.7730   36.7149 C   0  0  0  0  0  0  0  0  0  0  0  0
   20.3651   22.8883   37.1410 O   0  0  0  0  0  0  0  0  0  0  0  0
   19.4187   23.1262   38.1857 C   0  0  0  0  0  0  0  0  0  0  0  0
   20.0421   23.9351   39.3335 C   0  0  0  0  0  0  0  0  0  0  0  0
   19.9951   25.3980   39.1034 N   0  0  0  0  0  0  0  0  0  0  0  0
   20.8967   26.1130   40.0335 C   0  0  0  0  0  0  0  0  0  0  0  0
   20.2924   27.4542   40.4405 C   0  0  0  0  0  0  0  0  0  0  0  0
   20.1988   25.8162   37.6946 C   0  0  0  0  0  0  0  0  0  0  0  0
   21.3859   25.1524   37.0284 C   0  0  0  0  0  0  0  0  0  0  0  0
   22.4940   25.9295   36.6375 C   0  0  0  0  0  0  0  0  0  0  0  0
   22.5477   27.2528   36.9386 F   0  0  0  0  0  0  0  0  0  0  0  0
  1  2  1  0
  2  3  2  0
  2  4  1  0
  4  5  2  0
  5  6  1  0
  6  7  2  0
  7  8  1  0
  8  9  2  0
  9 10  1  0
 10 11  2  0
 11 12  1  0
 12 13  2  0
 13 14  1  0
  1 15  1  0
 15 16  2  0
 16 17  1  0
 17 18  2  0
 18 19  1  0
 19 20  1  0
 20 21  1  0
 21 22  1  0
 22 23  1  0
 23 24  1  0
 22 25  1  0
 25 26  1  0
 26 27  2  0
 27 28  1  0
 13  4  1  0
 27 15  1  0
 12  7  1  0
 26 18  1  0
M  END
>  <AAScore>  (1) 
1171.2189166775634

>  <RootName>  (1) 
./4ZLY/04_DeltaGEst/trajectory_02/rank_00/lead_0275

$$$$
