confid_3
     RDKit          3D

 27 30  0  0  0  0  0  0  0  0999 V2000
   25.3300   26.2600   34.7600 N   0  0  0  0  0  0  0  0  0  0  0  0
   26.1200   25.9200   33.6900 C   0  0  0  0  0  0  0  0  0  0  0  0
   25.6300   25.1100   32.9400 O   0  0  0  0  0  0  0  0  0  0  0  0
   27.5200   26.3800   33.4600 C   0  0  0  0  0  0  0  0  0  0  0  0
   28.1600   26.6300   34.6100 N   0  0  0  0  0  0  0  0  0  0  0  0
   29.4800   26.8500   34.5700 N   0  0  0  0  0  0  0  0  0  0  0  0
   30.1900   26.7800   33.4400 C   0  0  0  0  0  0  0  0  0  0  0  0
   31.5600   27.0500   33.5000 C   0  0  0  0  0  0  0  0  0  0  0  0
   32.2700   27.2400   32.3100 C   0  0  0  0  0  0  0  0  0  0  0  0
   31.6100   27.2500   31.0800 C   0  0  0  0  0  0  0  0  0  0  0  0
   30.2700   26.8700   31.0600 C   0  0  0  0  0  0  0  0  0  0  0  0
   29.5100   26.6900   32.2300 C   0  0  0  0  0  0  0  0  0  0  0  0
   28.1400   26.4100   32.2000 C   0  0  0  0  0  0  0  0  0  0  0  0
   27.4300   26.1300   31.0500 N   0  0  0  0  0  0  0  0  0  0  0  0
   23.8937   26.3453   34.7306 C   0  0  0  0  0  0  0  0  0  0  0  0
   23.2036   26.2104   35.8909 N   0  0  0  0  0  0  0  0  0  0  0  0
   21.8524   26.3163   35.9434 C   0  0  0  0  0  0  0  0  0  0  0  0
   21.1045   26.5792   34.7899 C   0  0  0  0  0  0  0  0  0  0  0  0
   19.7085   26.6133   34.9547 O   0  0  0  0  0  0  0  0  0  0  0  0
   18.7135   26.3527   33.9695 C   0  0  0  0  0  0  0  0  0  0  0  0
   19.1012   25.1805   33.1475 N   0  0  0  0  0  0  0  0  0  0  0  0
   19.2629   25.5378   31.7219 C   0  0  0  0  0  0  0  0  0  0  0  0
   20.6903   26.0146   31.4312 C   0  0  0  0  0  0  0  0  0  0  0  0
   21.1320   27.2206   32.2762 C   0  0  0  0  0  0  0  0  0  0  0  0
   21.7982   26.7959   33.5669 C   0  0  0  0  0  0  0  0  0  0  0  0
   23.1977   26.6505   33.5517 C   0  0  0  0  0  0  0  0  0  0  0  0
   18.1343   24.0808   33.3034 C   0  0  0  0  0  0  0  0  0  0  0  0
  1  2  1  0
  2  3  2  0
  2  4  1  0
  4  5  2  0
  5  6  1  0
  6  7  2  0
  7  8  1  0
  8  9  2  0
  9 10  1  0
 10 11  2  0
 11 12  1  0
 12 13  2  0
 13 14  1  0
  1 15  1  0
 15 16  2  0
 16 17  1  0
 17 18  2  0
 18 19  1  0
 19 20  1  0
 20 21  1  0
 21 22  1  0
 22 23  1  0
 23 24  1  0
 24 25  1  0
 25 26  2  0
 21 27  1  0
 13  4  1  0
 26 15  1  0
 12  7  1  0
 25 18  1  0
M  END
>  <AAScore>  (1) 
657.3184760354653

>  <RootName>  (1) 
./4ZLY/04_DeltaGEst/trajectory_03/rank_00/lead_0025

$$$$
