confid_11
     RDKit          3D

 26 29  0  0  0  0  0  0  0  0999 V2000
   24.5500   26.3900   36.2500 N   0  0  0  0  0  0  0  0  0  0  0  0
   25.6000   26.1300   35.4000 C   0  0  0  0  0  0  0  0  0  0  0  0
   25.4300   25.4300   34.4200 O   0  0  0  0  0  0  0  0  0  0  0  0
   26.9800   26.6300   35.7100 C   0  0  0  0  0  0  0  0  0  0  0  0
   27.3200   26.8200   36.9800 N   0  0  0  0  0  0  0  0  0  0  0  0
   28.4700   27.4000   37.3100 N   0  0  0  0  0  0  0  0  0  0  0  0
   29.4000   27.6300   36.3700 C   0  0  0  0  0  0  0  0  0  0  0  0
   30.6600   28.0500   36.8000 C   0  0  0  0  0  0  0  0  0  0  0  0
   31.5700   28.3600   35.7800 C   0  0  0  0  0  0  0  0  0  0  0  0
   31.3700   28.1000   34.4300 C   0  0  0  0  0  0  0  0  0  0  0  0
   30.1200   27.5900   34.0500 C   0  0  0  0  0  0  0  0  0  0  0  0
   29.1500   27.3400   35.0300 C   0  0  0  0  0  0  0  0  0  0  0  0
   27.8800   26.8900   34.6600 C   0  0  0  0  0  0  0  0  0  0  0  0
   27.4800   26.6100   33.3700 N   0  0  0  0  0  0  0  0  0  0  0  0
   30.9387   28.3937   38.1689 N   0  0  0  0  0  0  0  0  0  0  0  0
   32.1412   27.8024   38.7765 C   0  0  0  0  0  0  0  0  0  0  0  0
   32.0811   27.6600   40.3143 C   0  0  0  0  0  0  0  0  0  0  0  0
   30.6596   27.3955   40.9316 C   0  0  0  0  0  0  0  0  0  0  0  0
   29.7205   28.6467   40.7330 C   0  0  0  0  0  0  0  0  0  0  0  0
   30.4187   29.7753   40.0993 N   0  0  0  0  0  0  0  0  0  0  0  0
   30.3900   29.6726   38.6378 C   0  0  0  0  0  0  0  0  0  0  0  0
   30.8153   27.1230   42.4592 C   0  0  0  0  0  0  0  0  0  0  0  0
   31.4437   25.7489   42.7477 C   0  0  0  0  0  0  0  0  0  0  0  0
   30.6749   24.7147   42.1652 O   0  0  0  0  0  0  0  0  0  0  0  0
   30.6883   24.8355   40.7565 C   0  0  0  0  0  0  0  0  0  0  0  0
   29.9967   26.1315   40.3069 C   0  0  0  0  0  0  0  0  0  0  0  0
  1  2  1  0
  2  3  2  0
  2  4  1  0
  4  5  2  0
  5  6  1  0
  6  7  2  0
  7  8  1  0
  8  9  2  0
  9 10  1  0
 10 11  2  0
 11 12  1  0
 12 13  2  0
 13 14  1  0
  8 15  1  0
 15 16  1  0
 16 17  1  0
 17 18  1  0
 18 19  1  0
 19 20  1  0
 20 21  1  0
 18 22  1  0
 22 23  1  0
 23 24  1  0
 24 25  1  0
 25 26  1  0
 13  4  1  0
 21 15  1  0
 12  7  1  0
 26 18  1  0
M  END
>  <AAScore>  (1) 
11.817482848823298

>  <RootName>  (1) 
./4ZLY/04_DeltaGEst/trajectory_01/rank_01/lead_0070

$$$$
