confid_13
     RDKit          3D

 28 31  0  0  0  0  0  0  0  0999 V2000
   24.5700   26.8800   35.5900 N   0  0  0  0  0  0  0  0  0  0  0  0
   25.5000   26.4000   34.6900 C   0  0  0  0  0  0  0  0  0  0  0  0
   25.1700   25.5200   33.9100 O   0  0  0  0  0  0  0  0  0  0  0  0
   26.8400   27.0200   34.7400 C   0  0  0  0  0  0  0  0  0  0  0  0
   27.3800   27.2800   35.9400 N   0  0  0  0  0  0  0  0  0  0  0  0
   28.6200   27.7400   36.0300 N   0  0  0  0  0  0  0  0  0  0  0  0
   29.3800   28.0000   34.9600 C   0  0  0  0  0  0  0  0  0  0  0  0
   30.6700   28.5000   35.1300 C   0  0  0  0  0  0  0  0  0  0  0  0
   31.5400   28.6100   34.0300 C   0  0  0  0  0  0  0  0  0  0  0  0
   31.0900   28.2200   32.7700 C   0  0  0  0  0  0  0  0  0  0  0  0
   29.8000   27.7000   32.6000 C   0  0  0  0  0  0  0  0  0  0  0  0
   28.9600   27.5500   33.7100 C   0  0  0  0  0  0  0  0  0  0  0  0
   27.6600   27.0300   33.5900 C   0  0  0  0  0  0  0  0  0  0  0  0
   27.1600   26.7400   32.3400 N   0  0  0  0  0  0  0  0  0  0  0  0
   23.2232   26.3817   35.7163 C   0  0  0  0  0  0  0  0  0  0  0  0
   22.6103   25.7904   34.6545 N   0  0  0  0  0  0  0  0  0  0  0  0
   21.3234   25.3637   34.7005 C   0  0  0  0  0  0  0  0  0  0  0  0
   20.5621   25.5357   35.8630 C   0  0  0  0  0  0  0  0  0  0  0  0
   19.1219   25.0632   35.9061 C   0  0  0  0  0  0  0  0  0  0  0  0
   18.0953   26.1660   36.2741 C   0  0  0  0  0  0  0  0  0  0  0  0
   18.7303   27.4525   36.6452 N   0  0  0  0  0  0  0  0  0  0  0  0
   17.7625   28.5536   36.5087 C   0  0  0  0  0  0  0  0  0  0  0  0
   19.2678   27.4360   38.0263 C   0  0  0  0  0  0  0  0  0  0  0  0
   20.3424   26.3547   38.2404 C   0  0  0  0  0  0  0  0  0  0  0  0
   21.1658   26.1332   36.9907 C   0  0  0  0  0  0  0  0  0  0  0  0
   22.5062   26.5607   36.9159 C   0  0  0  0  0  0  0  0  0  0  0  0
   23.1115   27.1615   38.0240 O   0  0  0  0  0  0  0  0  0  0  0  0
   24.0805   26.4767   38.8090 C   0  0  0  0  0  0  0  0  0  0  0  0
  1  2  1  0
  2  3  2  0
  2  4  1  0
  4  5  2  0
  5  6  1  0
  6  7  2  0
  7  8  1  0
  8  9  2  0
  9 10  1  0
 10 11  2  0
 11 12  1  0
 12 13  2  0
 13 14  1  0
  1 15  1  0
 15 16  2  0
 16 17  1  0
 17 18  2  0
 18 19  1  0
 19 20  1  0
 20 21  1  0
 21 22  1  0
 21 23  1  0
 23 24  1  0
 24 25  1  0
 25 26  2  0
 26 27  1  0
 27 28  1  0
 13  4  1  0
 26 15  1  0
 12  7  1  0
 25 18  1  0
M  END
>  <AAScore>  (1) 
4958.611841645413

>  <RootName>  (1) 
./4ZLY/04_DeltaGEst/trajectory_05/rank_00/lead_0444

$$$$
