confid_13
     RDKit          3D

 31 35  0  0  0  0  0  0  0  0999 V2000
   24.5500   26.3900   36.2500 N   0  0  0  0  0  0  0  0  0  0  0  0
   25.6000   26.1300   35.4000 C   0  0  0  0  0  0  0  0  0  0  0  0
   25.4300   25.4300   34.4200 O   0  0  0  0  0  0  0  0  0  0  0  0
   26.9800   26.6300   35.7100 C   0  0  0  0  0  0  0  0  0  0  0  0
   27.3200   26.8200   36.9800 N   0  0  0  0  0  0  0  0  0  0  0  0
   28.4700   27.4000   37.3100 N   0  0  0  0  0  0  0  0  0  0  0  0
   29.4000   27.6300   36.3700 C   0  0  0  0  0  0  0  0  0  0  0  0
   30.6600   28.0500   36.8000 C   0  0  0  0  0  0  0  0  0  0  0  0
   31.5700   28.3600   35.7800 C   0  0  0  0  0  0  0  0  0  0  0  0
   31.3700   28.1000   34.4300 C   0  0  0  0  0  0  0  0  0  0  0  0
   30.1200   27.5900   34.0500 C   0  0  0  0  0  0  0  0  0  0  0  0
   29.1500   27.3400   35.0300 C   0  0  0  0  0  0  0  0  0  0  0  0
   27.8800   26.8900   34.6600 C   0  0  0  0  0  0  0  0  0  0  0  0
   27.4800   26.6100   33.3700 N   0  0  0  0  0  0  0  0  0  0  0  0
   23.3078   25.6721   36.2123 C   0  0  0  0  0  0  0  0  0  0  0  0
   22.2127   26.2965   36.5505 N   0  0  0  0  0  0  0  0  0  0  0  0
   20.9108   25.6981   36.5921 C   0  0  0  0  0  0  0  0  0  0  0  0
   20.4106   25.0897   35.5227 C   0  0  0  0  0  0  0  0  0  0  0  0
   19.2387   24.2389   35.1348 C   0  0  0  0  0  0  0  0  0  0  0  0
   19.6592   24.0359   33.8232 O   0  0  0  0  0  0  0  0  0  0  0  0
   20.7528   24.8608   34.0746 C   0  0  2  0  0  0  0  0  0  0  0  0
   22.1006   24.1582   33.7876 C   0  0  0  0  0  0  0  0  0  0  0  0
   22.7630   23.5424   34.9922 C   0  0  0  0  0  0  0  0  0  0  0  0
   23.3234   24.2000   36.0121 C   0  0  0  0  0  0  0  0  0  0  0  0
   23.9902   23.2572   36.9757 C   0  0  0  0  0  0  0  0  0  0  0  0
   23.7238   21.9390   36.4119 N   0  0  0  0  0  0  0  0  0  0  0  0
   22.9953   22.1309   35.2081 C   0  0  0  0  0  0  0  0  0  0  0  0
   22.6084   21.1986   34.4539 O   0  0  0  0  0  0  0  0  0  0  0  0
   24.0663   20.6724   37.0651 C   0  0  0  0  0  0  0  0  0  0  0  0
   22.8031   19.8625   37.3687 C   0  0  0  0  0  0  0  0  0  0  0  0
   25.0511   19.8744   36.2074 C   0  0  0  0  0  0  0  0  0  0  0  0
  1  2  1  0
  2  3  2  0
  2  4  1  0
  4  5  2  0
  5  6  1  0
  6  7  2  0
  7  8  1  0
  8  9  2  0
  9 10  1  0
 10 11  2  0
 11 12  1  0
 12 13  2  0
 13 14  1  0
  1 15  1  0
 15 16  2  0
 16 17  1  0
 17 18  2  0
 18 19  1  0
 19 20  1  0
 20 21  1  0
 21 22  1  1
 22 23  1  0
 23 24  2  0
 24 25  1  0
 25 26  1  0
 26 27  1  0
 27 28  2  0
 26 29  1  0
 29 30  1  0
 29 31  1  0
 13  4  1  0
 24 15  1  0
 12  7  1  0
 21 18  1  0
 27 23  1  0
M  END
>  <AAScore>  (1) 
6397.781621469622

>  <RootName>  (1) 
./4ZLY/04_DeltaGEst/trajectory_01/rank_00/lead_0371

$$$$
