confid_17
     RDKit          3D

 27 30  0  0  0  0  0  0  0  0999 V2000
   25.3300   26.2600   34.7600 N   0  0  0  0  0  0  0  0  0  0  0  0
   26.1200   25.9200   33.6900 C   0  0  0  0  0  0  0  0  0  0  0  0
   25.6300   25.1100   32.9400 O   0  0  0  0  0  0  0  0  0  0  0  0
   27.5200   26.3800   33.4600 C   0  0  0  0  0  0  0  0  0  0  0  0
   28.1600   26.6300   34.6100 N   0  0  0  0  0  0  0  0  0  0  0  0
   29.4800   26.8500   34.5700 N   0  0  0  0  0  0  0  0  0  0  0  0
   30.1900   26.7800   33.4400 C   0  0  0  0  0  0  0  0  0  0  0  0
   31.5600   27.0500   33.5000 C   0  0  0  0  0  0  0  0  0  0  0  0
   32.2700   27.2400   32.3100 C   0  0  0  0  0  0  0  0  0  0  0  0
   31.6100   27.2500   31.0800 C   0  0  0  0  0  0  0  0  0  0  0  0
   30.2700   26.8700   31.0600 C   0  0  0  0  0  0  0  0  0  0  0  0
   29.5100   26.6900   32.2300 C   0  0  0  0  0  0  0  0  0  0  0  0
   28.1400   26.4100   32.2000 C   0  0  0  0  0  0  0  0  0  0  0  0
   27.4300   26.1300   31.0500 N   0  0  0  0  0  0  0  0  0  0  0  0
   27.5664   24.8092   30.4204 C   0  0  0  0  0  0  0  0  0  0  0  0
   26.5471   24.6183   29.2921 C   0  0  0  0  0  0  0  0  0  0  0  0
   26.5267   25.7912   28.4033 N   0  0  0  0  0  0  0  0  0  0  0  0
   26.2593   25.6287   26.9930 C   0  0  0  0  0  0  0  0  0  0  0  0
   26.8828   26.4592   26.0468 C   0  0  0  0  0  0  0  0  0  0  0  0
   26.6144   26.2849   24.6880 C   0  0  0  0  0  0  0  0  0  0  0  0
   25.7483   25.3208   24.2812 N   0  0  0  0  0  0  0  0  0  0  0  0
   25.1128   24.5077   25.1674 C   0  0  0  0  0  0  0  0  0  0  0  0
   24.1859   23.4424   24.6631 C   0  0  0  0  0  0  0  0  0  0  0  0
   24.8747   22.1568   24.6329 N   0  0  0  0  0  0  0  0  0  0  0  0
   25.3653   24.6427   26.5399 C   0  0  0  0  0  0  0  0  0  0  0  0
   26.6306   27.1482   28.9671 C   0  0  0  0  0  0  0  0  0  0  0  0
   26.5200   27.1358   30.4936 C   0  0  0  0  0  0  0  0  0  0  0  0
  1  2  1  0
  2  3  2  0
  2  4  1  0
  4  5  2  0
  5  6  1  0
  6  7  2  0
  7  8  1  0
  8  9  2  0
  9 10  1  0
 10 11  2  0
 11 12  1  0
 12 13  2  0
 13 14  1  0
 14 15  1  0
 15 16  1  0
 16 17  1  0
 17 18  1  0
 18 19  2  0
 19 20  1  0
 20 21  2  0
 21 22  1  0
 22 23  1  0
 23 24  1  0
 22 25  2  0
 17 26  1  0
 26 27  1  0
 13  4  1  0
 27 14  1  0
 12  7  1  0
 25 18  1  0
M  END
>  <AAScore>  (1) 
3.578791413803835

>  <RootName>  (1) 
./4ZLY/04_DeltaGEst/trajectory_03/rank_01/lead_0269

$$$$
