confid_16
     RDKit          3D

 28 32  0  0  0  0  0  0  0  0999 V2000
   24.4800   26.1000   36.1300 N   0  0  0  0  0  0  0  0  0  0  0  0
   25.2500   26.2500   34.9900 C   0  0  0  0  0  0  0  0  0  0  0  0
   24.7400   25.7600   33.9900 O   0  0  0  0  0  0  0  0  0  0  0  0
   26.5900   26.8900   34.9600 C   0  0  0  0  0  0  0  0  0  0  0  0
   27.0600   27.2400   36.1600 N   0  0  0  0  0  0  0  0  0  0  0  0
   28.3000   27.7100   36.2400 N   0  0  0  0  0  0  0  0  0  0  0  0
   29.0500   27.9600   35.1500 C   0  0  0  0  0  0  0  0  0  0  0  0
   30.3400   28.4900   35.2600 C   0  0  0  0  0  0  0  0  0  0  0  0
   31.1100   28.8200   34.1400 C   0  0  0  0  0  0  0  0  0  0  0  0
   30.5200   28.6700   32.8800 C   0  0  0  0  0  0  0  0  0  0  0  0
   29.2900   28.0200   32.7700 C   0  0  0  0  0  0  0  0  0  0  0  0
   28.5200   27.7100   33.8900 C   0  0  0  0  0  0  0  0  0  0  0  0
   27.2700   27.0800   33.7600 C   0  0  0  0  0  0  0  0  0  0  0  0
   26.7500   26.8800   32.4900 N   0  0  0  0  0  0  0  0  0  0  0  0
   23.0461   26.0528   36.0900 C   0  0  0  0  0  0  0  0  0  0  0  0
   22.2809   27.0910   36.5049 N   0  0  0  0  0  0  0  0  0  0  0  0
   21.0268   26.6641   36.2572 C   0  0  0  0  0  0  0  0  0  0  0  0
   19.7742   27.4700   36.3877 C   0  0  0  0  0  0  0  0  0  0  0  0
   18.5811   26.5880   36.3125 N   0  0  0  0  0  0  0  0  0  0  0  0
   18.6492   25.6982   35.1220 C   0  0  0  0  0  0  0  0  0  0  0  0
   19.8172   24.6992   35.2479 C   0  0  0  0  0  0  0  0  0  0  0  0
   21.0508   25.4259   35.6843 C   0  0  0  0  0  0  0  0  0  0  0  0
   22.3264   25.0117   35.6025 N   0  0  0  0  0  0  0  0  0  0  0  0
   22.8104   23.7491   35.0443 C   0  0  0  0  0  0  0  0  0  0  0  0
   17.3521   27.4105   36.2914 C   0  0  0  0  0  0  0  0  0  0  0  0
   16.1244   26.5685   36.6806 C   0  0  0  0  0  0  0  0  0  0  0  0
   16.0744   26.1386   38.1387 C   0  0  0  0  0  0  0  0  0  0  0  0
   15.1399   27.2287   37.6357 C   0  0  0  0  0  0  0  0  0  0  0  0
  1  2  1  0
  2  3  2  0
  2  4  1  0
  4  5  2  0
  5  6  1  0
  6  7  2  0
  7  8  1  0
  8  9  2  0
  9 10  1  0
 10 11  2  0
 11 12  1  0
 12 13  2  0
 13 14  1  0
  1 15  1  0
 15 16  2  0
 16 17  1  0
 17 18  1  0
 18 19  1  0
 19 20  1  0
 20 21  1  0
 21 22  1  0
 22 23  1  0
 23 24  1  0
 19 25  1  0
 25 26  1  0
 26 27  1  0
 27 28  1  0
 13  4  1  0
 23 15  1  0
 28 26  1  0
 12  7  1  0
 22 17  2  0
M  END
>  <AAScore>  (1) 
5580.778754295955

>  <RootName>  (1) 
./4ZLY/04_DeltaGEst/trajectory_00/rank_01/lead_0251

$$$$
