confid_12
     RDKit          3D

 29 32  0  0  0  0  0  0  0  0999 V2000
   24.6900   26.1200   35.5300 N   0  0  0  0  0  0  0  0  0  0  0  0
   25.6600   25.6700   34.6600 C   0  0  0  0  0  0  0  0  0  0  0  0
   25.2400   25.0100   33.7200 O   0  0  0  0  0  0  0  0  0  0  0  0
   27.0300   26.2200   34.8800 C   0  0  0  0  0  0  0  0  0  0  0  0
   27.3500   26.7300   36.0700 N   0  0  0  0  0  0  0  0  0  0  0  0
   28.5700   27.1800   36.3300 N   0  0  0  0  0  0  0  0  0  0  0  0
   29.5300   27.1100   35.3900 C   0  0  0  0  0  0  0  0  0  0  0  0
   30.8300   27.5700   35.6500 C   0  0  0  0  0  0  0  0  0  0  0  0
   31.8500   27.5400   34.6900 C   0  0  0  0  0  0  0  0  0  0  0  0
   31.5100   27.1200   33.4000 C   0  0  0  0  0  0  0  0  0  0  0  0
   30.2200   26.6300   33.1100 C   0  0  0  0  0  0  0  0  0  0  0  0
   29.2400   26.6600   34.1000 C   0  0  0  0  0  0  0  0  0  0  0  0
   27.9300   26.2600   33.8100 C   0  0  0  0  0  0  0  0  0  0  0  0
   27.5200   25.7100   32.6100 N   0  0  0  0  0  0  0  0  0  0  0  0
   31.1472   28.0563   36.9659 N   0  0  0  0  0  0  0  0  0  0  0  0
   31.1978   27.1202   38.0988 C   0  0  0  0  0  0  0  0  0  0  0  0
   30.4876   27.7205   39.3208 C   0  0  0  0  0  0  0  0  0  0  0  0
   30.8912   29.1565   39.5343 C   0  0  0  0  0  0  0  0  0  0  0  0
   31.4064   29.9245   38.4979 C   0  0  0  0  0  0  0  0  0  0  0  0
   31.7265   31.4703   39.0606 S   0  0  0  0  0  0  0  0  0  0  0  0
   31.1617   31.2107   40.6292 C   0  0  0  0  0  0  0  0  0  0  0  0
   31.2400   32.2003   41.7260 C   0  0  0  0  0  0  0  0  0  0  0  0
   31.5419   31.7966   42.8825 O   0  0  0  0  0  0  0  0  0  0  0  0
   30.9954   33.6062   41.5078 N   0  0  0  0  0  0  0  0  0  0  0  0
   31.4677   34.5727   42.5031 C   0  0  0  0  0  0  0  0  0  0  0  0
   30.1947   34.0687   40.3694 C   0  0  0  0  0  0  0  0  0  0  0  0
   30.7192   29.8828   40.7315 C   0  0  0  0  0  0  0  0  0  0  0  0
   30.1550   29.2851   41.9904 C   0  0  0  0  0  0  0  0  0  0  0  0
   31.7110   29.4033   37.1287 C   0  0  0  0  0  0  0  0  0  0  0  0
  1  2  1  0
  2  3  2  0
  2  4  1  0
  4  5  2  0
  5  6  1  0
  6  7  2  0
  7  8  1  0
  8  9  2  0
  9 10  1  0
 10 11  2  0
 11 12  1  0
 12 13  2  0
 13 14  1  0
  8 15  1  0
 15 16  1  0
 16 17  1  0
 17 18  1  0
 18 19  2  0
 19 20  1  0
 20 21  1  0
 21 22  1  0
 22 23  2  0
 22 24  1  0
 24 25  1  0
 24 26  1  0
 21 27  2  0
 27 28  1  0
 19 29  1  0
 13  4  1  0
 29 15  1  0
 12  7  1  0
 27 18  1  0
M  END
>  <AAScore>  (1) 
-6.456388071853106

>  <RootName>  (1) 
./4ZLY/04_DeltaGEst/trajectory_02/rank_01/lead_0249

$$$$
