confid_14
     RDKit          3D

 26 28  0  0  0  0  0  0  0  0999 V2000
   24.2000   26.2400   35.6900 N   0  0  0  0  0  0  0  0  0  0  0  0
   24.8500   26.2800   34.4800 C   0  0  0  0  0  0  0  0  0  0  0  0
   24.3100   25.7400   33.5400 O   0  0  0  0  0  0  0  0  0  0  0  0
   26.1800   26.9700   34.4700 C   0  0  0  0  0  0  0  0  0  0  0  0
   26.6500   27.6000   35.5500 N   0  0  0  0  0  0  0  0  0  0  0  0
   27.7900   28.2700   35.6200 N   0  0  0  0  0  0  0  0  0  0  0  0
   28.5400   28.3000   34.5100 C   0  0  0  0  0  0  0  0  0  0  0  0
   29.7700   28.9400   34.5600 C   0  0  0  0  0  0  0  0  0  0  0  0
   30.7000   28.8900   33.5000 C   0  0  0  0  0  0  0  0  0  0  0  0
   30.3700   28.1400   32.3700 C   0  0  0  0  0  0  0  0  0  0  0  0
   29.1200   27.5200   32.2800 C   0  0  0  0  0  0  0  0  0  0  0  0
   28.2100   27.6100   33.3300 C   0  0  0  0  0  0  0  0  0  0  0  0
   26.9700   26.9700   33.3100 C   0  0  0  0  0  0  0  0  0  0  0  0
   26.5300   26.2400   32.2200 N   0  0  0  0  0  0  0  0  0  0  0  0
   30.1210   29.6998   35.7299 N   0  0  0  0  0  0  0  0  0  0  0  0
   31.2010   29.2115   36.5979 C   0  0  0  0  0  0  0  0  0  0  0  0
   32.3775   30.1892   36.5913 C   0  0  0  0  0  0  0  0  0  0  0  0
   31.9276   31.5323   36.9772 N   0  0  0  0  0  0  0  0  0  0  0  0
   32.6232   32.7063   36.5146 C   0  0  0  0  0  0  0  0  0  0  0  0
   33.5466   32.5985   35.6590 O   0  0  0  0  0  0  0  0  0  0  0  0
   32.3093   34.0730   37.0634 C   0  0  0  0  0  0  0  0  0  0  0  0
   33.3574   34.5174   38.0962 C   0  0  0  0  0  0  0  0  0  0  0  0
   33.2252   33.7583   39.4188 C   0  0  0  0  0  0  0  0  0  0  0  0
   30.9457   31.6388   37.9165 O   0  0  0  0  0  0  0  0  0  0  0  0
   29.6723   31.6616   37.2795 C   0  0  0  0  0  0  0  0  0  0  0  0
   29.5713   31.0619   35.8517 C   0  0  0  0  0  0  0  0  0  0  0  0
  1  2  1  0
  2  3  2  0
  2  4  1  0
  4  5  2  0
  5  6  1  0
  6  7  2  0
  7  8  1  0
  8  9  2  0
  9 10  1  0
 10 11  2  0
 11 12  1  0
 12 13  2  0
 13 14  1  0
  8 15  1  0
 15 16  1  0
 16 17  1  0
 17 18  1  0
 18 19  1  0
 19 20  2  0
 19 21  1  0
 21 22  1  0
 22 23  1  0
 18 24  1  0
 24 25  1  0
 25 26  1  0
 13  4  1  0
 26 15  1  0
 12  7  1  0
M  END
>  <AAScore>  (1) 
-7.377780346664982

>  <RootName>  (1) 
./4ZLY/04_DeltaGEst/trajectory_04/rank_01/lead_0011

$$$$
