confid_13
     RDKit          3D

 27 30  0  0  0  0  0  0  0  0999 V2000
   24.6900   26.1200   35.5300 N   0  0  0  0  0  0  0  0  0  0  0  0
   25.6600   25.6700   34.6600 C   0  0  0  0  0  0  0  0  0  0  0  0
   25.2400   25.0100   33.7200 O   0  0  0  0  0  0  0  0  0  0  0  0
   27.0300   26.2200   34.8800 C   0  0  0  0  0  0  0  0  0  0  0  0
   27.3500   26.7300   36.0700 N   0  0  0  0  0  0  0  0  0  0  0  0
   28.5700   27.1800   36.3300 N   0  0  0  0  0  0  0  0  0  0  0  0
   29.5300   27.1100   35.3900 C   0  0  0  0  0  0  0  0  0  0  0  0
   30.8300   27.5700   35.6500 C   0  0  0  0  0  0  0  0  0  0  0  0
   31.8500   27.5400   34.6900 C   0  0  0  0  0  0  0  0  0  0  0  0
   31.5100   27.1200   33.4000 C   0  0  0  0  0  0  0  0  0  0  0  0
   30.2200   26.6300   33.1100 C   0  0  0  0  0  0  0  0  0  0  0  0
   29.2400   26.6600   34.1000 C   0  0  0  0  0  0  0  0  0  0  0  0
   27.9300   26.2600   33.8100 C   0  0  0  0  0  0  0  0  0  0  0  0
   27.5200   25.7100   32.6100 N   0  0  0  0  0  0  0  0  0  0  0  0
   23.3382   26.4368   35.1450 C   0  0  0  0  0  0  0  0  0  0  0  0
   22.9934   26.5340   33.8326 N   0  0  0  0  0  0  0  0  0  0  0  0
   21.7333   26.8515   33.4381 C   0  0  0  0  0  0  0  0  0  0  0  0
   20.7304   27.1135   34.3850 C   0  0  0  0  0  0  0  0  0  0  0  0
   19.3219   27.3492   33.8664 C   0  0  0  0  0  0  0  0  0  0  0  0
   18.3332   27.7473   34.8959 N   0  0  0  0  0  0  0  0  0  0  0  0
   16.9978   27.8158   34.2689 C   0  0  0  0  0  0  0  0  0  0  0  0
   18.7659   28.9875   35.6067 C   0  0  1  0  0  0  0  0  0  0  0  0
   17.6379   29.9800   35.9700 C   0  0  0  0  0  0  0  0  0  0  0  0
   19.4990   28.5774   36.8957 C   0  0  0  0  0  0  0  0  0  0  0  0
   20.1527   27.3183   36.7636 O   0  0  0  0  0  0  0  0  0  0  0  0
   21.0746   27.0466   35.7533 C   0  0  0  0  0  0  0  0  0  0  0  0
   22.3739   26.6917   36.1258 C   0  0  0  0  0  0  0  0  0  0  0  0
  1  2  1  0
  2  3  2  0
  2  4  1  0
  4  5  2  0
  5  6  1  0
  6  7  2  0
  7  8  1  0
  8  9  2  0
  9 10  1  0
 10 11  2  0
 11 12  1  0
 12 13  2  0
 13 14  1  0
  1 15  1  0
 15 16  2  0
 16 17  1  0
 17 18  2  0
 18 19  1  0
 19 20  1  0
 20 21  1  0
 20 22  1  0
 22 23  1  1
 22 24  1  0
 24 25  1  0
 25 26  1  0
 26 27  2  0
 13  4  1  0
 27 15  1  0
 12  7  1  0
 26 18  1  0
M  END
>  <AAScore>  (1) 
773.9747454892032

>  <RootName>  (1) 
./4ZLY/04_DeltaGEst/trajectory_02/rank_00/lead_0408

$$$$
