confid_7
     RDKit          3D

 28 32  0  0  0  0  0  0  0  0999 V2000
   25.3300   26.2600   34.7600 N   0  0  0  0  0  0  0  0  0  0  0  0
   26.1200   25.9200   33.6900 C   0  0  0  0  0  0  0  0  0  0  0  0
   25.6300   25.1100   32.9400 O   0  0  0  0  0  0  0  0  0  0  0  0
   27.5200   26.3800   33.4600 C   0  0  0  0  0  0  0  0  0  0  0  0
   28.1600   26.6300   34.6100 N   0  0  0  0  0  0  0  0  0  0  0  0
   29.4800   26.8500   34.5700 N   0  0  0  0  0  0  0  0  0  0  0  0
   30.1900   26.7800   33.4400 C   0  0  0  0  0  0  0  0  0  0  0  0
   31.5600   27.0500   33.5000 C   0  0  0  0  0  0  0  0  0  0  0  0
   32.2700   27.2400   32.3100 C   0  0  0  0  0  0  0  0  0  0  0  0
   31.6100   27.2500   31.0800 C   0  0  0  0  0  0  0  0  0  0  0  0
   30.2700   26.8700   31.0600 C   0  0  0  0  0  0  0  0  0  0  0  0
   29.5100   26.6900   32.2300 C   0  0  0  0  0  0  0  0  0  0  0  0
   28.1400   26.4100   32.2000 C   0  0  0  0  0  0  0  0  0  0  0  0
   27.4300   26.1300   31.0500 N   0  0  0  0  0  0  0  0  0  0  0  0
   26.2348   26.6970   30.3897 C   0  0  0  0  0  0  0  0  0  0  0  0
   25.9929   25.5569   29.4568 C   0  0  0  0  0  0  0  0  0  0  0  0
   27.2467   24.9970   30.0931 C   0  0  0  0  0  0  0  0  0  0  0  0
   28.4043   24.8945   29.0686 C   0  0  0  0  0  0  0  0  0  0  0  0
   28.1252   23.7911   28.0333 C   0  0  0  0  0  0  0  0  0  0  0  0
   27.5412   22.5910   28.6553 N   0  0  0  0  0  0  0  0  0  0  0  0
   27.6448   22.4335   30.1128 C   0  0  0  0  0  0  0  0  0  0  0  0
   27.0289   23.6407   30.8383 C   0  0  0  0  0  0  0  0  0  0  0  0
   26.8892   21.5829   27.8485 C   0  0  0  0  0  0  0  0  0  0  0  0
   27.1376   21.4674   26.4676 C   0  0  0  0  0  0  0  0  0  0  0  0
   26.4962   20.5105   25.7466 N   0  0  0  0  0  0  0  0  0  0  0  0
   25.6145   19.6587   26.3299 C   0  0  0  0  0  0  0  0  0  0  0  0
   25.3631   19.7648   27.6968 C   0  0  0  0  0  0  0  0  0  0  0  0
   26.0027   20.7198   28.4203 N   0  0  0  0  0  0  0  0  0  0  0  0
  1  2  1  0
  2  3  2  0
  2  4  1  0
  4  5  2  0
  5  6  1  0
  6  7  2  0
  7  8  1  0
  8  9  2  0
  9 10  1  0
 10 11  2  0
 11 12  1  0
 12 13  2  0
 13 14  1  0
 14 15  1  0
 15 16  1  0
 16 17  1  0
 17 18  1  0
 18 19  1  0
 19 20  1  0
 20 21  1  0
 21 22  1  0
 20 23  1  0
 23 24  2  0
 24 25  1  0
 25 26  2  0
 26 27  1  0
 27 28  2  0
 13  4  1  0
 17 14  1  0
 28 23  1  0
 12  7  1  0
 22 17  1  0
M  END
>  <AAScore>  (1) 
2.0027059082014977

>  <RootName>  (1) 
./4ZLY/04_DeltaGEst/trajectory_03/rank_01/lead_0224

$$$$
