confid_14
     RDKit          3D

 29 33  0  0  0  0  0  0  0  0999 V2000
   25.3300   26.2600   34.7600 N   0  0  0  0  0  0  0  0  0  0  0  0
   26.1200   25.9200   33.6900 C   0  0  0  0  0  0  0  0  0  0  0  0
   25.6300   25.1100   32.9400 O   0  0  0  0  0  0  0  0  0  0  0  0
   27.5200   26.3800   33.4600 C   0  0  0  0  0  0  0  0  0  0  0  0
   28.1600   26.6300   34.6100 N   0  0  0  0  0  0  0  0  0  0  0  0
   29.4800   26.8500   34.5700 N   0  0  0  0  0  0  0  0  0  0  0  0
   30.1900   26.7800   33.4400 C   0  0  0  0  0  0  0  0  0  0  0  0
   31.5600   27.0500   33.5000 C   0  0  0  0  0  0  0  0  0  0  0  0
   32.2700   27.2400   32.3100 C   0  0  0  0  0  0  0  0  0  0  0  0
   31.6100   27.2500   31.0800 C   0  0  0  0  0  0  0  0  0  0  0  0
   30.2700   26.8700   31.0600 C   0  0  0  0  0  0  0  0  0  0  0  0
   29.5100   26.6900   32.2300 C   0  0  0  0  0  0  0  0  0  0  0  0
   28.1400   26.4100   32.2000 C   0  0  0  0  0  0  0  0  0  0  0  0
   27.4300   26.1300   31.0500 N   0  0  0  0  0  0  0  0  0  0  0  0
   24.2494   25.4668   35.2908 C   0  0  0  0  0  0  0  0  0  0  0  0
   24.0677   24.1715   34.8875 N   0  0  0  0  0  0  0  0  0  0  0  0
   23.0648   23.4254   35.4152 C   0  0  0  0  0  0  0  0  0  0  0  0
   22.7426   22.0188   35.0905 C   0  0  0  0  0  0  0  0  0  0  0  0
   21.5987   21.7427   35.9630 N   0  0  0  0  0  0  0  0  0  0  0  0
   21.2267   22.9044   36.7780 C   0  0  0  0  0  0  0  0  0  0  0  0
   22.2137   23.9306   36.3625 C   0  0  0  0  0  0  0  0  0  0  0  0
   22.3592   25.2398   36.8133 C   0  0  0  0  0  0  0  0  0  0  0  0
   21.5282   25.7492   37.7559 F   0  0  0  0  0  0  0  0  0  0  0  0
   23.3934   26.0181   36.2718 C   0  0  0  0  0  0  0  0  0  0  0  0
   20.9024   20.4869   35.9762 C   0  0  0  0  0  0  0  0  0  0  0  0
   21.2261   19.5838   35.1582 O   0  0  0  0  0  0  0  0  0  0  0  0
   19.7549   20.2529   36.9173 C   0  0  0  0  0  0  0  0  0  0  0  0
   19.7224   18.8817   37.5789 C   0  0  0  0  0  0  0  0  0  0  0  0
   20.1629   20.0969   38.3746 C   0  0  0  0  0  0  0  0  0  0  0  0
  1  2  1  0
  2  3  2  0
  2  4  1  0
  4  5  2  0
  5  6  1  0
  6  7  2  0
  7  8  1  0
  8  9  2  0
  9 10  1  0
 10 11  2  0
 11 12  1  0
 12 13  2  0
 13 14  1  0
  1 15  1  0
 15 16  2  0
 16 17  1  0
 17 18  1  0
 18 19  1  0
 19 20  1  0
 20 21  1  0
 21 22  1  0
 22 23  1  0
 22 24  2  0
 19 25  1  0
 25 26  2  0
 25 27  1  0
 27 28  1  0
 28 29  1  0
 13  4  1  0
 24 15  1  0
 29 27  1  0
 12  7  1  0
 21 17  2  0
M  END
>  <AAScore>  (1) 
1376.5361906164385

>  <RootName>  (1) 
./4ZLY/04_DeltaGEst/trajectory_03/rank_00/lead_0258

$$$$
