confid_4
     RDKit          3D

 27 31  0  0  0  0  0  0  0  0999 V2000
   25.3300   26.2600   34.7600 N   0  0  0  0  0  0  0  0  0  0  0  0
   26.1200   25.9200   33.6900 C   0  0  0  0  0  0  0  0  0  0  0  0
   25.6300   25.1100   32.9400 O   0  0  0  0  0  0  0  0  0  0  0  0
   27.5200   26.3800   33.4600 C   0  0  0  0  0  0  0  0  0  0  0  0
   28.1600   26.6300   34.6100 N   0  0  0  0  0  0  0  0  0  0  0  0
   29.4800   26.8500   34.5700 N   0  0  0  0  0  0  0  0  0  0  0  0
   30.1900   26.7800   33.4400 C   0  0  0  0  0  0  0  0  0  0  0  0
   31.5600   27.0500   33.5000 C   0  0  0  0  0  0  0  0  0  0  0  0
   32.2700   27.2400   32.3100 C   0  0  0  0  0  0  0  0  0  0  0  0
   31.6100   27.2500   31.0800 C   0  0  0  0  0  0  0  0  0  0  0  0
   30.2700   26.8700   31.0600 C   0  0  0  0  0  0  0  0  0  0  0  0
   29.5100   26.6900   32.2300 C   0  0  0  0  0  0  0  0  0  0  0  0
   28.1400   26.4100   32.2000 C   0  0  0  0  0  0  0  0  0  0  0  0
   27.4300   26.1300   31.0500 N   0  0  0  0  0  0  0  0  0  0  0  0
   27.6192   24.8317   30.3876 C   0  0  0  0  0  0  0  0  0  0  0  0
   27.1190   24.8327   28.9387 C   0  0  0  0  0  0  0  0  0  0  0  0
   27.8520   25.8445   28.1029 C   0  0  0  0  0  0  0  0  0  0  0  0
   28.6472   25.3571   27.1135 N   0  0  0  0  0  0  0  0  0  0  0  0
   29.3609   26.1697   26.3026 C   0  0  0  0  0  0  0  0  0  0  0  0
   29.2858   27.5101   26.4558 N   0  0  0  0  0  0  0  0  0  0  0  0
   28.5012   28.0749   27.4102 C   0  0  0  0  0  0  0  0  0  0  0  0
   27.7693   27.2520   28.3074 C   0  0  0  0  0  0  0  0  0  0  0  0
   26.9520   27.9312   29.4096 C   0  0  0  0  0  0  0  0  0  0  0  0
   26.4209   27.0815   30.5698 C   0  0  0  0  0  0  0  0  0  0  0  0
   28.4995   29.5792   27.5270 C   0  0  0  0  0  0  0  0  0  0  0  0
   27.2182   30.2538   27.0568 C   0  0  0  0  0  0  0  0  0  0  0  0
   28.4717   30.3409   26.2070 C   0  0  0  0  0  0  0  0  0  0  0  0
  1  2  1  0
  2  3  2  0
  2  4  1  0
  4  5  2  0
  5  6  1  0
  6  7  2  0
  7  8  1  0
  8  9  2  0
  9 10  1  0
 10 11  2  0
 11 12  1  0
 12 13  2  0
 13 14  1  0
 14 15  1  0
 15 16  1  0
 16 17  1  0
 17 18  2  0
 18 19  1  0
 19 20  2  0
 20 21  1  0
 21 22  2  0
 22 23  1  0
 23 24  1  0
 21 25  1  0
 25 26  1  0
 26 27  1  0
 13  4  1  0
 24 14  1  0
 27 25  1  0
 12  7  1  0
 22 17  1  0
M  END
>  <AAScore>  (1) 
146.1669118934463

>  <RootName>  (1) 
./4ZLY/04_DeltaGEst/trajectory_03/rank_01/lead_0016

$$$$
