confid_1
     RDKit          3D

 27 30  0  0  0  0  0  0  0  0999 V2000
   25.3300   26.2600   34.7600 N   0  0  0  0  0  0  0  0  0  0  0  0
   26.1200   25.9200   33.6900 C   0  0  0  0  0  0  0  0  0  0  0  0
   25.6300   25.1100   32.9400 O   0  0  0  0  0  0  0  0  0  0  0  0
   27.5200   26.3800   33.4600 C   0  0  0  0  0  0  0  0  0  0  0  0
   28.1600   26.6300   34.6100 N   0  0  0  0  0  0  0  0  0  0  0  0
   29.4800   26.8500   34.5700 N   0  0  0  0  0  0  0  0  0  0  0  0
   30.1900   26.7800   33.4400 C   0  0  0  0  0  0  0  0  0  0  0  0
   31.5600   27.0500   33.5000 C   0  0  0  0  0  0  0  0  0  0  0  0
   32.2700   27.2400   32.3100 C   0  0  0  0  0  0  0  0  0  0  0  0
   31.6100   27.2500   31.0800 C   0  0  0  0  0  0  0  0  0  0  0  0
   30.2700   26.8700   31.0600 C   0  0  0  0  0  0  0  0  0  0  0  0
   29.5100   26.6900   32.2300 C   0  0  0  0  0  0  0  0  0  0  0  0
   28.1400   26.4100   32.2000 C   0  0  0  0  0  0  0  0  0  0  0  0
   27.4300   26.1300   31.0500 N   0  0  0  0  0  0  0  0  0  0  0  0
   23.8910   26.2244   34.7735 C   0  0  0  0  0  0  0  0  0  0  0  0
   23.2489   26.0322   35.9649 N   0  0  0  0  0  0  0  0  0  0  0  0
   21.8941   26.0189   36.0171 C   0  0  0  0  0  0  0  0  0  0  0  0
   21.0441   25.8161   37.2360 C   0  0  0  0  0  0  0  0  0  0  0  0
   19.6822   25.9067   36.7001 N   0  0  0  0  0  0  0  0  0  0  0  0
   19.7518   26.1423   35.2969 C   0  0  0  0  0  0  0  0  0  0  0  0
   18.7490   26.2716   34.5456 O   0  0  0  0  0  0  0  0  0  0  0  0
   21.1342   26.2086   34.8885 C   0  0  0  0  0  0  0  0  0  0  0  0
   21.7213   26.4326   33.6464 C   0  0  0  0  0  0  0  0  0  0  0  0
   20.9097   26.6374   32.5213 O   0  0  0  0  0  0  0  0  0  0  0  0
   21.4078   26.8711   31.2085 C   0  0  0  0  0  0  0  0  0  0  0  0
   23.1329   26.4462   33.5932 C   0  0  0  0  0  0  0  0  0  0  0  0
   18.4566   25.7784   37.4771 C   0  0  0  0  0  0  0  0  0  0  0  0
  1  2  1  0
  2  3  2  0
  2  4  1  0
  4  5  2  0
  5  6  1  0
  6  7  2  0
  7  8  1  0
  8  9  2  0
  9 10  1  0
 10 11  2  0
 11 12  1  0
 12 13  2  0
 13 14  1  0
  1 15  1  0
 15 16  2  0
 16 17  1  0
 17 18  1  0
 18 19  1  0
 19 20  1  0
 20 21  2  0
 20 22  1  0
 22 23  1  0
 23 24  1  0
 24 25  1  0
 23 26  2  0
 19 27  1  0
 13  4  1  0
 26 15  1  0
 12  7  1  0
 22 17  2  0
M  END
>  <AAScore>  (1) 
2871.989880388144

>  <RootName>  (1) 
./4ZLY/04_DeltaGEst/trajectory_03/rank_00/lead_0394

$$$$
