confid_18
     RDKit          3D

 27 30  0  0  0  0  0  0  0  0999 V2000
   25.3300   26.2600   34.7600 N   0  0  0  0  0  0  0  0  0  0  0  0
   26.1200   25.9200   33.6900 C   0  0  0  0  0  0  0  0  0  0  0  0
   25.6300   25.1100   32.9400 O   0  0  0  0  0  0  0  0  0  0  0  0
   27.5200   26.3800   33.4600 C   0  0  0  0  0  0  0  0  0  0  0  0
   28.1600   26.6300   34.6100 N   0  0  0  0  0  0  0  0  0  0  0  0
   29.4800   26.8500   34.5700 N   0  0  0  0  0  0  0  0  0  0  0  0
   30.1900   26.7800   33.4400 C   0  0  0  0  0  0  0  0  0  0  0  0
   31.5600   27.0500   33.5000 C   0  0  0  0  0  0  0  0  0  0  0  0
   32.2700   27.2400   32.3100 C   0  0  0  0  0  0  0  0  0  0  0  0
   31.6100   27.2500   31.0800 C   0  0  0  0  0  0  0  0  0  0  0  0
   30.2700   26.8700   31.0600 C   0  0  0  0  0  0  0  0  0  0  0  0
   29.5100   26.6900   32.2300 C   0  0  0  0  0  0  0  0  0  0  0  0
   28.1400   26.4100   32.2000 C   0  0  0  0  0  0  0  0  0  0  0  0
   27.4300   26.1300   31.0500 N   0  0  0  0  0  0  0  0  0  0  0  0
   23.9212   25.9788   34.8773 C   0  0  0  0  0  0  0  0  0  0  0  0
   23.1496   25.5277   33.8683 N   0  0  0  0  0  0  0  0  0  0  0  0
   21.9108   25.4715   34.4037 C   0  0  0  0  0  0  0  0  0  0  0  0
   20.7203   24.9854   33.6302 C   0  0  0  0  0  0  0  0  0  0  0  0
   19.7278   26.0605   33.3781 N   0  0  0  0  0  0  0  0  0  0  0  0
   19.4446   26.9159   34.5620 C   0  0  0  0  0  0  0  0  0  0  0  0
   19.3512   26.1262   35.8836 C   0  0  0  0  0  0  0  0  0  0  0  0
   20.7096   25.9731   36.5995 C   0  0  0  0  0  0  0  0  0  0  0  0
   21.8684   25.8884   35.6934 N   0  0  0  0  0  0  0  0  0  0  0  0
   23.1488   26.1830   36.0048 C   0  0  0  0  0  0  0  0  0  0  0  0
   23.6212   26.7100   37.3285 C   0  0  0  0  0  0  0  0  0  0  0  0
   18.4777   25.5078   32.8054 C   0  0  0  0  0  0  0  0  0  0  0  0
   18.6796   25.0432   31.3629 C   0  0  0  0  0  0  0  0  0  0  0  0
  1  2  1  0
  2  3  2  0
  2  4  1  0
  4  5  2  0
  5  6  1  0
  6  7  2  0
  7  8  1  0
  8  9  2  0
  9 10  1  0
 10 11  2  0
 11 12  1  0
 12 13  2  0
 13 14  1  0
  1 15  1  0
 15 16  1  0
 16 17  2  0
 17 18  1  0
 18 19  1  0
 19 20  1  0
 20 21  1  0
 21 22  1  0
 22 23  1  0
 23 24  1  0
 24 25  1  0
 19 26  1  0
 26 27  1  0
 13  4  1  0
 24 15  2  0
 12  7  1  0
 23 17  1  0
M  END
>  <AAScore>  (1) 
3529.70475049142

>  <RootName>  (1) 
./4ZLY/04_DeltaGEst/trajectory_03/rank_00/lead_0239

$$$$
