confid_2
     RDKit          3D

 27 30  0  0  0  0  0  0  0  0999 V2000
   24.2000   26.2400   35.6900 N   0  0  0  0  0  0  0  0  0  0  0  0
   24.8500   26.2800   34.4800 C   0  0  0  0  0  0  0  0  0  0  0  0
   24.3100   25.7400   33.5400 O   0  0  0  0  0  0  0  0  0  0  0  0
   26.1800   26.9700   34.4700 C   0  0  0  0  0  0  0  0  0  0  0  0
   26.6500   27.6000   35.5500 N   0  0  0  0  0  0  0  0  0  0  0  0
   27.7900   28.2700   35.6200 N   0  0  0  0  0  0  0  0  0  0  0  0
   28.5400   28.3000   34.5100 C   0  0  0  0  0  0  0  0  0  0  0  0
   29.7700   28.9400   34.5600 C   0  0  0  0  0  0  0  0  0  0  0  0
   30.7000   28.8900   33.5000 C   0  0  0  0  0  0  0  0  0  0  0  0
   30.3700   28.1400   32.3700 C   0  0  0  0  0  0  0  0  0  0  0  0
   29.1200   27.5200   32.2800 C   0  0  0  0  0  0  0  0  0  0  0  0
   28.2100   27.6100   33.3300 C   0  0  0  0  0  0  0  0  0  0  0  0
   26.9700   26.9700   33.3100 C   0  0  0  0  0  0  0  0  0  0  0  0
   26.5300   26.2400   32.2200 N   0  0  0  0  0  0  0  0  0  0  0  0
   30.1362   29.6711   35.7411 N   0  0  0  0  0  0  0  0  0  0  0  0
   31.1536   29.0980   36.6393 C   0  0  0  0  0  0  0  0  0  0  0  0
   31.5844   30.0789   37.7394 C   0  0  0  0  0  0  0  0  0  0  0  0
   30.3870   30.7722   38.3367 C   0  0  0  0  0  0  0  0  0  0  0  0
   30.2837   31.0312   39.7163 C   0  0  0  0  0  0  0  0  0  0  0  0
   31.2757   30.5880   40.5949 O   0  0  0  0  0  0  0  0  0  0  0  0
   31.1510   29.3552   41.2927 C   0  0  0  0  0  0  0  0  0  0  0  0
   29.1775   31.7599   40.1946 C   0  0  0  0  0  0  0  0  0  0  0  0
   28.2189   32.1795   39.3247 N   0  0  0  0  0  0  0  0  0  0  0  0
   28.2971   31.9376   37.9908 C   0  0  0  0  0  0  0  0  0  0  0  0
   29.3829   31.2260   37.4694 C   0  0  0  0  0  0  0  0  0  0  0  0
   29.5176   30.9817   35.9916 C   0  0  0  0  0  0  0  0  0  0  0  0
   29.0141   32.0606   41.6534 C   0  0  0  0  0  0  0  0  0  0  0  0
  1  2  1  0
  2  3  2  0
  2  4  1  0
  4  5  2  0
  5  6  1  0
  6  7  2  0
  7  8  1  0
  8  9  2  0
  9 10  1  0
 10 11  2  0
 11 12  1  0
 12 13  2  0
 13 14  1  0
  8 15  1  0
 15 16  1  0
 16 17  1  0
 17 18  1  0
 18 19  2  0
 19 20  1  0
 20 21  1  0
 19 22  1  0
 22 23  2  0
 23 24  1  0
 24 25  2  0
 25 26  1  0
 22 27  1  0
 13  4  1  0
 26 15  1  0
 12  7  1  0
 25 18  1  0
M  END
>  <AAScore>  (1) 
-9.423223556549862

>  <RootName>  (1) 
./4ZLY/04_DeltaGEst/trajectory_04/rank_01/lead_0292

$$$$
