confid_13
     RDKit          3D

 29 32  0  0  0  0  0  0  0  0999 V2000
   25.3300   26.2600   34.7600 N   0  0  0  0  0  0  0  0  0  0  0  0
   26.1200   25.9200   33.6900 C   0  0  0  0  0  0  0  0  0  0  0  0
   25.6300   25.1100   32.9400 O   0  0  0  0  0  0  0  0  0  0  0  0
   27.5200   26.3800   33.4600 C   0  0  0  0  0  0  0  0  0  0  0  0
   28.1600   26.6300   34.6100 N   0  0  0  0  0  0  0  0  0  0  0  0
   29.4800   26.8500   34.5700 N   0  0  0  0  0  0  0  0  0  0  0  0
   30.1900   26.7800   33.4400 C   0  0  0  0  0  0  0  0  0  0  0  0
   31.5600   27.0500   33.5000 C   0  0  0  0  0  0  0  0  0  0  0  0
   32.2700   27.2400   32.3100 C   0  0  0  0  0  0  0  0  0  0  0  0
   31.6100   27.2500   31.0800 C   0  0  0  0  0  0  0  0  0  0  0  0
   30.2700   26.8700   31.0600 C   0  0  0  0  0  0  0  0  0  0  0  0
   29.5100   26.6900   32.2300 C   0  0  0  0  0  0  0  0  0  0  0  0
   28.1400   26.4100   32.2000 C   0  0  0  0  0  0  0  0  0  0  0  0
   27.4300   26.1300   31.0500 N   0  0  0  0  0  0  0  0  0  0  0  0
   27.5948   24.8297   30.3860 C   0  0  0  0  0  0  0  0  0  0  0  0
   27.6814   24.9732   28.8489 C   0  0  0  0  0  0  0  0  0  0  0  0
   27.2367   26.2957   28.3578 N   0  0  0  0  0  0  0  0  0  0  0  0
   26.0621   26.7709   29.1014 C   0  0  0  0  0  0  0  0  0  0  0  0
   26.4956   27.1312   30.5207 C   0  0  0  0  0  0  0  0  0  0  0  0
   26.8636   26.2082   26.6544 S   0  0  0  0  0  6  0  0  0  0  0  0
   25.7142   25.2662   26.4224 O   0  0  0  0  0  0  0  0  0  0  0  0
   26.4702   27.5703   26.1541 O   0  0  0  0  0  0  0  0  0  0  0  0
   28.2734   25.6534   25.7512 C   0  0  0  0  0  0  0  0  0  0  0  0
   29.1805   26.5817   25.2194 C   0  0  0  0  0  0  0  0  0  0  0  0
   30.3070   26.1404   24.5195 C   0  0  0  0  0  0  0  0  0  0  0  0
   30.5370   24.7715   24.3521 C   0  0  0  0  0  0  0  0  0  0  0  0
   29.6399   23.8404   24.8862 C   0  0  0  0  0  0  0  0  0  0  0  0
   28.5088   24.2801   25.5831 C   0  0  0  0  0  0  0  0  0  0  0  0
   29.9308   22.1234   24.6783 Cl  0  0  0  0  0  0  0  0  0  0  0  0
  1  2  1  0
  2  3  2  0
  2  4  1  0
  4  5  2  0
  5  6  1  0
  6  7  2  0
  7  8  1  0
  8  9  2  0
  9 10  1  0
 10 11  2  0
 11 12  1  0
 12 13  2  0
 13 14  1  0
 14 15  1  0
 15 16  1  0
 16 17  1  0
 17 18  1  0
 18 19  1  0
 17 20  1  0
 20 21  2  0
 20 22  2  0
 20 23  1  0
 23 24  2  0
 24 25  1  0
 25 26  2  0
 26 27  1  0
 27 28  2  0
 27 29  1  0
 13  4  1  0
 19 14  1  0
 28 23  1  0
 12  7  1  0
M  END
>  <AAScore>  (1) 
10.750005053231495

>  <RootName>  (1) 
./4ZLY/04_DeltaGEst/trajectory_03/rank_01/lead_0002

$$$$
