confid_6
     RDKit          3D

 29 32  0  0  0  0  0  0  0  0999 V2000
   24.5700   26.8800   35.5900 N   0  0  0  0  0  0  0  0  0  0  0  0
   25.5000   26.4000   34.6900 C   0  0  0  0  0  0  0  0  0  0  0  0
   25.1700   25.5200   33.9100 O   0  0  0  0  0  0  0  0  0  0  0  0
   26.8400   27.0200   34.7400 C   0  0  0  0  0  0  0  0  0  0  0  0
   27.3800   27.2800   35.9400 N   0  0  0  0  0  0  0  0  0  0  0  0
   28.6200   27.7400   36.0300 N   0  0  0  0  0  0  0  0  0  0  0  0
   29.3800   28.0000   34.9600 C   0  0  0  0  0  0  0  0  0  0  0  0
   30.6700   28.5000   35.1300 C   0  0  0  0  0  0  0  0  0  0  0  0
   31.5400   28.6100   34.0300 C   0  0  0  0  0  0  0  0  0  0  0  0
   31.0900   28.2200   32.7700 C   0  0  0  0  0  0  0  0  0  0  0  0
   29.8000   27.7000   32.6000 C   0  0  0  0  0  0  0  0  0  0  0  0
   28.9600   27.5500   33.7100 C   0  0  0  0  0  0  0  0  0  0  0  0
   27.6600   27.0300   33.5900 C   0  0  0  0  0  0  0  0  0  0  0  0
   27.1600   26.7400   32.3400 N   0  0  0  0  0  0  0  0  0  0  0  0
   23.1875   26.4961   35.5768 C   0  0  0  0  0  0  0  0  0  0  0  0
   22.5808   25.9963   36.6725 N   0  0  0  0  0  0  0  0  0  0  0  0
   21.3024   25.8262   36.2920 C   0  0  0  0  0  0  0  0  0  0  0  0
   21.1494   26.2362   34.9849 C   0  0  0  0  0  0  0  0  0  0  0  0
   19.8198   26.2968   34.2790 C   0  0  0  0  0  0  0  0  0  0  0  0
   19.9224   25.7845   32.9022 N   0  0  0  0  0  0  0  0  0  0  0  0
   20.7559   26.4700   31.9482 C   0  0  0  0  0  0  0  0  0  0  0  0
   20.9288   25.9878   30.7908 O   0  0  0  0  0  0  0  0  0  0  0  0
   21.5242   27.6930   32.3560 C   0  0  0  0  0  0  0  0  0  0  0  0
   22.7184   27.2917   33.2334 C   0  0  0  0  0  0  0  0  0  0  0  0
   22.3449   26.6929   34.5311 N   0  0  0  0  0  0  0  0  0  0  0  0
   19.2033   24.5578   32.5153 C   0  0  0  0  0  0  0  0  0  0  0  0
   17.9948   24.8822   31.6082 C   0  0  0  0  0  0  0  0  0  0  0  0
   17.4117   23.5901   31.0200 C   0  0  0  0  0  0  0  0  0  0  0  0
   16.9126   25.6525   32.3746 C   0  0  0  0  0  0  0  0  0  0  0  0
  1  2  1  0
  2  3  2  0
  2  4  1  0
  4  5  2  0
  5  6  1  0
  6  7  2  0
  7  8  1  0
  8  9  2  0
  9 10  1  0
 10 11  2  0
 11 12  1  0
 12 13  2  0
 13 14  1  0
  1 15  1  0
 15 16  2  0
 16 17  1  0
 17 18  2  0
 18 19  1  0
 19 20  1  0
 20 21  1  0
 21 22  2  0
 21 23  1  0
 23 24  1  0
 24 25  1  0
 20 26  1  0
 26 27  1  0
 27 28  1  0
 27 29  1  0
 13  4  1  0
 25 15  1  0
 12  7  1  0
 25 18  1  0
M  END
>  <AAScore>  (1) 
766.9268459701807

>  <RootName>  (1) 
./4ZLY/04_DeltaGEst/trajectory_05/rank_00/lead_0086

$$$$
