confid_18
     RDKit          3D

 27 30  0  0  0  0  0  0  0  0999 V2000
   24.4800   26.1000   36.1300 N   0  0  0  0  0  0  0  0  0  0  0  0
   25.2500   26.2500   34.9900 C   0  0  0  0  0  0  0  0  0  0  0  0
   24.7400   25.7600   33.9900 O   0  0  0  0  0  0  0  0  0  0  0  0
   26.5900   26.8900   34.9600 C   0  0  0  0  0  0  0  0  0  0  0  0
   27.0600   27.2400   36.1600 N   0  0  0  0  0  0  0  0  0  0  0  0
   28.3000   27.7100   36.2400 N   0  0  0  0  0  0  0  0  0  0  0  0
   29.0500   27.9600   35.1500 C   0  0  0  0  0  0  0  0  0  0  0  0
   30.3400   28.4900   35.2600 C   0  0  0  0  0  0  0  0  0  0  0  0
   31.1100   28.8200   34.1400 C   0  0  0  0  0  0  0  0  0  0  0  0
   30.5200   28.6700   32.8800 C   0  0  0  0  0  0  0  0  0  0  0  0
   29.2900   28.0200   32.7700 C   0  0  0  0  0  0  0  0  0  0  0  0
   28.5200   27.7100   33.8900 C   0  0  0  0  0  0  0  0  0  0  0  0
   27.2700   27.0800   33.7600 C   0  0  0  0  0  0  0  0  0  0  0  0
   26.7500   26.8800   32.4900 N   0  0  0  0  0  0  0  0  0  0  0  0
   23.5298   25.0402   36.3564 C   0  0  0  0  0  0  0  0  0  0  0  0
   23.7145   23.7547   35.8257 C   0  0  0  0  0  0  0  0  0  0  0  0
   22.7849   22.7386   36.0698 C   0  0  0  0  0  0  0  0  0  0  0  0
   23.0111   21.4951   35.4565 O   0  0  0  0  0  0  0  0  0  0  0  0
   22.0719   20.4271   35.3475 C   0  0  0  0  0  0  0  0  0  0  0  0
   20.6743   20.9566   35.0076 C   0  0  0  0  0  0  0  0  0  0  0  0
   19.9166   21.3579   36.2116 N   0  0  0  0  0  0  0  0  0  0  0  0
   18.6323   22.0234   35.9011 C   0  0  0  0  0  0  0  0  0  0  0  0
   18.7747   23.5009   35.5166 C   0  0  0  0  0  0  0  0  0  0  0  0
   20.6816   21.9666   37.3252 C   0  0  0  0  0  0  0  0  0  0  0  0
   21.6696   23.0223   36.8944 C   0  0  0  0  0  0  0  0  0  0  0  0
   21.5380   24.2692   37.4258 N   0  0  0  0  0  0  0  0  0  0  0  0
   22.4219   25.2683   37.1763 C   0  0  0  0  0  0  0  0  0  0  0  0
  1  2  1  0
  2  3  2  0
  2  4  1  0
  4  5  2  0
  5  6  1  0
  6  7  2  0
  7  8  1  0
  8  9  2  0
  9 10  1  0
 10 11  2  0
 11 12  1  0
 12 13  2  0
 13 14  1  0
  1 15  1  0
 15 16  2  0
 16 17  1  0
 17 18  1  0
 18 19  1  0
 19 20  1  0
 20 21  1  0
 21 22  1  0
 22 23  1  0
 21 24  1  0
 24 25  1  0
 25 26  1  0
 26 27  2  0
 13  4  1  0
 27 15  1  0
 12  7  1  0
 25 17  2  0
M  END
>  <AAScore>  (1) 
2011.7615543675577

>  <RootName>  (1) 
./4ZLY/04_DeltaGEst/trajectory_00/rank_00/lead_0350

$$$$
