confid_8
     RDKit          3D

 29 32  0  0  0  0  0  0  0  0999 V2000
   24.6900   26.1200   35.5300 N   0  0  0  0  0  0  0  0  0  0  0  0
   25.6600   25.6700   34.6600 C   0  0  0  0  0  0  0  0  0  0  0  0
   25.2400   25.0100   33.7200 O   0  0  0  0  0  0  0  0  0  0  0  0
   27.0300   26.2200   34.8800 C   0  0  0  0  0  0  0  0  0  0  0  0
   27.3500   26.7300   36.0700 N   0  0  0  0  0  0  0  0  0  0  0  0
   28.5700   27.1800   36.3300 N   0  0  0  0  0  0  0  0  0  0  0  0
   29.5300   27.1100   35.3900 C   0  0  0  0  0  0  0  0  0  0  0  0
   30.8300   27.5700   35.6500 C   0  0  0  0  0  0  0  0  0  0  0  0
   31.8500   27.5400   34.6900 C   0  0  0  0  0  0  0  0  0  0  0  0
   31.5100   27.1200   33.4000 C   0  0  0  0  0  0  0  0  0  0  0  0
   30.2200   26.6300   33.1100 C   0  0  0  0  0  0  0  0  0  0  0  0
   29.2400   26.6600   34.1000 C   0  0  0  0  0  0  0  0  0  0  0  0
   27.9300   26.2600   33.8100 C   0  0  0  0  0  0  0  0  0  0  0  0
   27.5200   25.7100   32.6100 N   0  0  0  0  0  0  0  0  0  0  0  0
   31.1493   28.0595   36.9621 N   0  0  0  0  0  0  0  0  0  0  0  0
   31.2240   27.1293   38.0958 C   0  0  0  0  0  0  0  0  0  0  0  0
   30.4938   27.7185   39.3098 C   0  0  0  0  0  0  0  0  0  0  0  0
   30.7774   29.1540   39.4710 N   0  0  0  0  0  0  0  0  0  0  0  0
   30.0170   29.9246   40.4211 C   0  0  0  0  0  0  0  0  0  0  0  0
   29.8659   29.4754   41.7444 C   0  0  0  0  0  0  0  0  0  0  0  0
   29.1160   30.2182   42.6621 C   0  0  0  0  0  0  0  0  0  0  0  0
   28.9831   29.7789   43.9382 F   0  0  0  0  0  0  0  0  0  0  0  0
   28.5059   31.4122   42.2655 C   0  0  0  0  0  0  0  0  0  0  0  0
   28.6442   31.8633   40.9493 C   0  0  0  0  0  0  0  0  0  0  0  0
   28.0462   33.0165   40.5600 F   0  0  0  0  0  0  0  0  0  0  0  0
   29.3943   31.1231   40.0301 C   0  0  0  0  0  0  0  0  0  0  0  0
   27.7780   32.1308   43.1561 F   0  0  0  0  0  0  0  0  0  0  0  0
   31.7725   29.8022   38.6061 C   0  0  0  0  0  0  0  0  0  0  0  0
   31.4656   29.4836   37.1405 C   0  0  0  0  0  0  0  0  0  0  0  0
  1  2  1  0
  2  3  2  0
  2  4  1  0
  4  5  2  0
  5  6  1  0
  6  7  2  0
  7  8  1  0
  8  9  2  0
  9 10  1  0
 10 11  2  0
 11 12  1  0
 12 13  2  0
 13 14  1  0
  8 15  1  0
 15 16  1  0
 16 17  1  0
 17 18  1  0
 18 19  1  0
 19 20  2  0
 20 21  1  0
 21 22  1  0
 21 23  2  0
 23 24  1  0
 24 25  1  0
 24 26  2  0
 23 27  1  0
 18 28  1  0
 28 29  1  0
 13  4  1  0
 29 15  1  0
 12  7  1  0
 26 19  1  0
M  END
>  <AAScore>  (1) 
20.703440364123683

>  <RootName>  (1) 
./4ZLY/04_DeltaGEst/trajectory_02/rank_01/lead_0110

$$$$
