confid_0
     RDKit          3D

 27 30  0  0  0  0  0  0  0  0999 V2000
   24.6900   26.1200   35.5300 N   0  0  0  0  0  0  0  0  0  0  0  0
   25.6600   25.6700   34.6600 C   0  0  0  0  0  0  0  0  0  0  0  0
   25.2400   25.0100   33.7200 O   0  0  0  0  0  0  0  0  0  0  0  0
   27.0300   26.2200   34.8800 C   0  0  0  0  0  0  0  0  0  0  0  0
   27.3500   26.7300   36.0700 N   0  0  0  0  0  0  0  0  0  0  0  0
   28.5700   27.1800   36.3300 N   0  0  0  0  0  0  0  0  0  0  0  0
   29.5300   27.1100   35.3900 C   0  0  0  0  0  0  0  0  0  0  0  0
   30.8300   27.5700   35.6500 C   0  0  0  0  0  0  0  0  0  0  0  0
   31.8500   27.5400   34.6900 C   0  0  0  0  0  0  0  0  0  0  0  0
   31.5100   27.1200   33.4000 C   0  0  0  0  0  0  0  0  0  0  0  0
   30.2200   26.6300   33.1100 C   0  0  0  0  0  0  0  0  0  0  0  0
   29.2400   26.6600   34.1000 C   0  0  0  0  0  0  0  0  0  0  0  0
   27.9300   26.2600   33.8100 C   0  0  0  0  0  0  0  0  0  0  0  0
   27.5200   25.7100   32.6100 N   0  0  0  0  0  0  0  0  0  0  0  0
   31.1839   28.0734   37.0006 C   0  0  0  0  0  0  0  0  0  0  0  0
   31.7595   29.3537   37.1486 C   0  0  0  0  0  0  0  0  0  0  0  0
   32.0914   29.8036   38.4278 C   0  0  0  0  0  0  0  0  0  0  0  0
   32.7105   31.1184   38.7863 C   0  0  0  0  0  0  0  0  0  0  0  0
   32.8180   31.0797   40.3441 C   0  0  1  0  0  0  0  0  0  0  0  0
   32.0683   32.1502   41.0508 N   0  0  0  0  0  0  0  0  0  0  0  0
   30.6320   32.2244   40.7172 C   0  0  0  0  0  0  0  0  0  0  0  0
   32.7105   33.4620   40.8747 C   0  0  0  0  0  0  0  0  0  0  0  0
   32.3034   29.7202   40.7099 C   0  0  0  0  0  0  0  0  0  0  0  0
   32.2590   29.2587   41.8810 O   0  0  0  0  0  0  0  0  0  0  0  0
   31.8747   29.0134   39.5287 C   0  0  0  0  0  0  0  0  0  0  0  0
   31.3167   27.7405   39.4215 C   0  0  0  0  0  0  0  0  0  0  0  0
   30.9721   27.2688   38.1459 C   0  0  0  0  0  0  0  0  0  0  0  0
  1  2  1  0
  2  3  2  0
  2  4  1  0
  4  5  2  0
  5  6  1  0
  6  7  2  0
  7  8  1  0
  8  9  2  0
  9 10  1  0
 10 11  2  0
 11 12  1  0
 12 13  2  0
 13 14  1  0
  8 15  1  0
 15 16  2  0
 16 17  1  0
 17 18  1  0
 18 19  1  0
 19 20  1  1
 20 21  1  0
 20 22  1  0
 19 23  1  0
 23 24  2  0
 23 25  1  0
 25 26  1  0
 26 27  2  0
 13  4  1  0
 27 15  1  0
 12  7  1  0
 25 17  2  0
M  END
>  <AAScore>  (1) 
9.215024515729

>  <RootName>  (1) 
./4ZLY/04_DeltaGEst/trajectory_02/rank_01/lead_0327

$$$$
