confid_19
     RDKit          3D

 28 31  0  0  0  0  0  0  0  0999 V2000
   24.4800   26.1000   36.1300 N   0  0  0  0  0  0  0  0  0  0  0  0
   25.2500   26.2500   34.9900 C   0  0  0  0  0  0  0  0  0  0  0  0
   24.7400   25.7600   33.9900 O   0  0  0  0  0  0  0  0  0  0  0  0
   26.5900   26.8900   34.9600 C   0  0  0  0  0  0  0  0  0  0  0  0
   27.0600   27.2400   36.1600 N   0  0  0  0  0  0  0  0  0  0  0  0
   28.3000   27.7100   36.2400 N   0  0  0  0  0  0  0  0  0  0  0  0
   29.0500   27.9600   35.1500 C   0  0  0  0  0  0  0  0  0  0  0  0
   30.3400   28.4900   35.2600 C   0  0  0  0  0  0  0  0  0  0  0  0
   31.1100   28.8200   34.1400 C   0  0  0  0  0  0  0  0  0  0  0  0
   30.5200   28.6700   32.8800 C   0  0  0  0  0  0  0  0  0  0  0  0
   29.2900   28.0200   32.7700 C   0  0  0  0  0  0  0  0  0  0  0  0
   28.5200   27.7100   33.8900 C   0  0  0  0  0  0  0  0  0  0  0  0
   27.2700   27.0800   33.7600 C   0  0  0  0  0  0  0  0  0  0  0  0
   26.7500   26.8800   32.4900 N   0  0  0  0  0  0  0  0  0  0  0  0
   23.4179   25.1468   36.3165 C   0  0  0  0  0  0  0  0  0  0  0  0
   22.6438   25.2210   37.4320 N   0  0  0  0  0  0  0  0  0  0  0  0
   21.6384   24.3356   37.6528 C   0  0  0  0  0  0  0  0  0  0  0  0
   21.3789   23.3243   36.7225 C   0  0  0  0  0  0  0  0  0  0  0  0
   20.3066   22.2956   36.9817 C   0  0  0  0  0  0  0  0  0  0  0  0
   19.9051   21.6088   35.7362 N   0  0  0  0  0  0  0  0  0  0  0  0
   21.0963   21.0541   35.0604 C   0  0  0  0  0  0  0  0  0  0  0  0
   21.9706   22.1967   34.5372 C   0  0  0  0  0  0  0  0  0  0  0  0
   22.2096   23.2363   35.5937 C   0  0  0  0  0  0  0  0  0  0  0  0
   23.1963   24.1532   35.4128 N   0  0  0  0  0  0  0  0  0  0  0  0
   18.9095   20.5507   36.0214 C   0  0  0  0  0  0  0  0  0  0  0  0
   17.9541   20.3582   34.8253 C   0  0  0  0  0  0  0  0  0  0  0  0
   17.1758   21.6471   34.5254 C   0  0  0  0  0  0  0  0  0  0  0  0
   16.9804   19.2047   35.1000 C   0  0  0  0  0  0  0  0  0  0  0  0
  1  2  1  0
  2  3  2  0
  2  4  1  0
  4  5  2  0
  5  6  1  0
  6  7  2  0
  7  8  1  0
  8  9  2  0
  9 10  1  0
 10 11  2  0
 11 12  1  0
 12 13  2  0
 13 14  1  0
  1 15  1  0
 15 16  2  0
 16 17  1  0
 17 18  2  0
 18 19  1  0
 19 20  1  0
 20 21  1  0
 21 22  1  0
 22 23  1  0
 23 24  2  0
 20 25  1  0
 25 26  1  0
 26 27  1  0
 26 28  1  0
 13  4  1  0
 24 15  1  0
 12  7  1  0
 23 18  1  0
M  END
>  <AAScore>  (1) 
225.61942961882227

>  <RootName>  (1) 
./4ZLY/04_DeltaGEst/trajectory_00/rank_00/lead_0282

$$$$
