confid_16
     RDKit          3D

 27 30  0  0  0  0  0  0  0  0999 V2000
   24.5500   26.3900   36.2500 N   0  0  0  0  0  0  0  0  0  0  0  0
   25.6000   26.1300   35.4000 C   0  0  0  0  0  0  0  0  0  0  0  0
   25.4300   25.4300   34.4200 O   0  0  0  0  0  0  0  0  0  0  0  0
   26.9800   26.6300   35.7100 C   0  0  0  0  0  0  0  0  0  0  0  0
   27.3200   26.8200   36.9800 N   0  0  0  0  0  0  0  0  0  0  0  0
   28.4700   27.4000   37.3100 N   0  0  0  0  0  0  0  0  0  0  0  0
   29.4000   27.6300   36.3700 C   0  0  0  0  0  0  0  0  0  0  0  0
   30.6600   28.0500   36.8000 C   0  0  0  0  0  0  0  0  0  0  0  0
   31.5700   28.3600   35.7800 C   0  0  0  0  0  0  0  0  0  0  0  0
   31.3700   28.1000   34.4300 C   0  0  0  0  0  0  0  0  0  0  0  0
   30.1200   27.5900   34.0500 C   0  0  0  0  0  0  0  0  0  0  0  0
   29.1500   27.3400   35.0300 C   0  0  0  0  0  0  0  0  0  0  0  0
   27.8800   26.8900   34.6600 C   0  0  0  0  0  0  0  0  0  0  0  0
   27.4800   26.6100   33.3700 N   0  0  0  0  0  0  0  0  0  0  0  0
   30.9743   28.3011   38.1833 N   0  0  0  0  0  0  0  0  0  0  0  0
   32.2572   27.8457   38.7332 C   0  0  0  0  0  0  0  0  0  0  0  0
   32.1234   27.5727   40.2328 C   0  0  0  0  0  0  0  0  0  0  0  0
   31.4807   28.7104   40.9031 N   0  0  0  0  0  0  0  0  0  0  0  0
   31.7376   28.9580   42.3232 C   0  0  0  0  0  0  0  0  0  0  0  0
   30.9211   28.0268   43.1639 C   0  0  0  0  0  0  0  0  0  0  0  0
   31.3250   26.7961   43.6489 C   0  0  0  0  0  0  0  0  0  0  0  0
   30.2203   26.2469   44.2694 C   0  0  0  0  0  0  0  0  0  0  0  0
   29.1762   27.0940   44.1774 N   0  0  0  0  0  0  0  0  0  0  0  0
   27.8145   26.8236   44.6216 C   0  0  0  0  0  0  0  0  0  0  0  0
   29.5864   28.1742   43.4862 C   0  0  0  0  0  0  0  0  0  0  0  0
   30.4088   29.4091   40.2455 C   0  0  0  0  0  0  0  0  0  0  0  0
   30.1614   29.2074   38.9506 C   0  0  0  0  0  0  0  0  0  0  0  0
  1  2  1  0
  2  3  2  0
  2  4  1  0
  4  5  2  0
  5  6  1  0
  6  7  2  0
  7  8  1  0
  8  9  2  0
  9 10  1  0
 10 11  2  0
 11 12  1  0
 12 13  2  0
 13 14  1  0
  8 15  1  0
 15 16  1  0
 16 17  1  0
 17 18  1  0
 18 19  1  0
 19 20  1  0
 20 21  1  0
 21 22  2  0
 22 23  1  0
 23 24  1  0
 23 25  1  0
 18 26  1  0
 26 27  2  0
 13  4  1  0
 27 15  1  0
 12  7  1  0
 25 20  2  0
M  END
>  <AAScore>  (1) 
8.972682732282868

>  <RootName>  (1) 
./4ZLY/04_DeltaGEst/trajectory_01/rank_01/lead_0301

$$$$
