confid_5
     RDKit          3D

 28 31  0  0  0  0  0  0  0  0999 V2000
   25.3300   26.2600   34.7600 N   0  0  0  0  0  0  0  0  0  0  0  0
   26.1200   25.9200   33.6900 C   0  0  0  0  0  0  0  0  0  0  0  0
   25.6300   25.1100   32.9400 O   0  0  0  0  0  0  0  0  0  0  0  0
   27.5200   26.3800   33.4600 C   0  0  0  0  0  0  0  0  0  0  0  0
   28.1600   26.6300   34.6100 N   0  0  0  0  0  0  0  0  0  0  0  0
   29.4800   26.8500   34.5700 N   0  0  0  0  0  0  0  0  0  0  0  0
   30.1900   26.7800   33.4400 C   0  0  0  0  0  0  0  0  0  0  0  0
   31.5600   27.0500   33.5000 C   0  0  0  0  0  0  0  0  0  0  0  0
   32.2700   27.2400   32.3100 C   0  0  0  0  0  0  0  0  0  0  0  0
   31.6100   27.2500   31.0800 C   0  0  0  0  0  0  0  0  0  0  0  0
   30.2700   26.8700   31.0600 C   0  0  0  0  0  0  0  0  0  0  0  0
   29.5100   26.6900   32.2300 C   0  0  0  0  0  0  0  0  0  0  0  0
   28.1400   26.4100   32.2000 C   0  0  0  0  0  0  0  0  0  0  0  0
   27.4300   26.1300   31.0500 N   0  0  0  0  0  0  0  0  0  0  0  0
   27.5533   24.8023   30.4302 C   0  0  0  0  0  0  0  0  0  0  0  0
   26.5602   24.6317   29.2765 C   0  0  0  0  0  0  0  0  0  0  0  0
   26.6053   25.8017   28.3922 N   0  0  0  0  0  0  0  0  0  0  0  0
   26.3134   25.6388   26.9952 C   0  0  0  0  0  0  0  0  0  0  0  0
   25.3975   24.8508   26.6362 O   0  0  0  0  0  0  0  0  0  0  0  0
   27.0537   26.3925   25.9718 C   0  0  0  0  0  0  0  0  0  0  0  0
   28.4009   26.7412   26.0082 C   0  0  0  0  0  0  0  0  0  0  0  0
   29.2408   26.3770   27.0687 O   0  0  0  0  0  0  0  0  0  0  0  0
   30.6288   26.6861   27.1129 C   0  0  0  0  0  0  0  0  0  0  0  0
   28.8228   27.4446   24.8650 C   0  0  0  0  0  0  0  0  0  0  0  0
   27.8180   27.6236   23.9233 C   0  0  0  0  0  0  0  0  0  0  0  0
   26.4103   26.9140   24.5086 S   0  0  0  0  0  0  0  0  0  0  0  0
   26.6676   27.1610   28.9543 C   0  0  0  0  0  0  0  0  0  0  0  0
   26.5391   27.1467   30.4807 C   0  0  0  0  0  0  0  0  0  0  0  0
  1  2  1  0
  2  3  2  0
  2  4  1  0
  4  5  2  0
  5  6  1  0
  6  7  2  0
  7  8  1  0
  8  9  2  0
  9 10  1  0
 10 11  2  0
 11 12  1  0
 12 13  2  0
 13 14  1  0
 14 15  1  0
 15 16  1  0
 16 17  1  0
 17 18  1  0
 18 19  2  0
 18 20  1  0
 20 21  2  0
 21 22  1  0
 22 23  1  0
 21 24  1  0
 24 25  2  0
 25 26  1  0
 17 27  1  0
 27 28  1  0
 13  4  1  0
 28 14  1  0
 12  7  1  0
 26 20  1  0
M  END
>  <AAScore>  (1) 
2.23491859654033

>  <RootName>  (1) 
./4ZLY/04_DeltaGEst/trajectory_03/rank_01/lead_0456

$$$$
