confid_10
     RDKit          3D

 27 30  0  0  0  0  0  0  0  0999 V2000
   24.6900   26.1200   35.5300 N   0  0  0  0  0  0  0  0  0  0  0  0
   25.6600   25.6700   34.6600 C   0  0  0  0  0  0  0  0  0  0  0  0
   25.2400   25.0100   33.7200 O   0  0  0  0  0  0  0  0  0  0  0  0
   27.0300   26.2200   34.8800 C   0  0  0  0  0  0  0  0  0  0  0  0
   27.3500   26.7300   36.0700 N   0  0  0  0  0  0  0  0  0  0  0  0
   28.5700   27.1800   36.3300 N   0  0  0  0  0  0  0  0  0  0  0  0
   29.5300   27.1100   35.3900 C   0  0  0  0  0  0  0  0  0  0  0  0
   30.8300   27.5700   35.6500 C   0  0  0  0  0  0  0  0  0  0  0  0
   31.8500   27.5400   34.6900 C   0  0  0  0  0  0  0  0  0  0  0  0
   31.5100   27.1200   33.4000 C   0  0  0  0  0  0  0  0  0  0  0  0
   30.2200   26.6300   33.1100 C   0  0  0  0  0  0  0  0  0  0  0  0
   29.2400   26.6600   34.1000 C   0  0  0  0  0  0  0  0  0  0  0  0
   27.9300   26.2600   33.8100 C   0  0  0  0  0  0  0  0  0  0  0  0
   27.5200   25.7100   32.6100 N   0  0  0  0  0  0  0  0  0  0  0  0
   23.2965   26.2679   35.1926 C   0  0  0  0  0  0  0  0  0  0  0  0
   22.9033   26.3672   33.8951 N   0  0  0  0  0  0  0  0  0  0  0  0
   21.5999   26.5162   33.5436 C   0  0  0  0  0  0  0  0  0  0  0  0
   20.5945   26.5823   34.5238 C   0  0  0  0  0  0  0  0  0  0  0  0
   19.1451   26.5868   34.0836 C   0  0  0  0  0  0  0  0  0  0  0  0
   18.4327   27.6704   34.6555 O   0  0  0  0  0  0  0  0  0  0  0  0
   17.4986   27.2531   35.6377 C   0  0  0  0  0  0  0  0  0  0  0  0
   17.8360   27.8844   36.9912 C   0  0  0  0  0  0  0  0  0  0  0  0
   19.3425   27.9199   37.2847 C   0  0  0  0  0  0  0  0  0  0  0  0
   20.0184   26.6093   36.9931 C   0  0  0  0  0  0  0  0  0  0  0  0
   19.8046   25.6129   37.7335 O   0  0  0  0  0  0  0  0  0  0  0  0
   20.9825   26.5004   35.8843 C   0  0  0  0  0  0  0  0  0  0  0  0
   22.3370   26.3451   36.2075 C   0  0  0  0  0  0  0  0  0  0  0  0
  1  2  1  0
  2  3  2  0
  2  4  1  0
  4  5  2  0
  5  6  1  0
  6  7  2  0
  7  8  1  0
  8  9  2  0
  9 10  1  0
 10 11  2  0
 11 12  1  0
 12 13  2  0
 13 14  1  0
  1 15  1  0
 15 16  2  0
 16 17  1  0
 17 18  2  0
 18 19  1  0
 19 20  1  0
 20 21  1  0
 21 22  1  0
 22 23  1  0
 23 24  1  0
 24 25  2  0
 24 26  1  0
 26 27  2  0
 13  4  1  0
 27 15  1  0
 12  7  1  0
 26 18  1  0
M  END
>  <AAScore>  (1) 
352.64516816001776

>  <RootName>  (1) 
./4ZLY/04_DeltaGEst/trajectory_02/rank_00/lead_0129

$$$$
