confid_19
     RDKit          3D

 27 30  0  0  0  0  0  0  0  0999 V2000
   24.2000   26.2400   35.6900 N   0  0  0  0  0  0  0  0  0  0  0  0
   24.8500   26.2800   34.4800 C   0  0  0  0  0  0  0  0  0  0  0  0
   24.3100   25.7400   33.5400 O   0  0  0  0  0  0  0  0  0  0  0  0
   26.1800   26.9700   34.4700 C   0  0  0  0  0  0  0  0  0  0  0  0
   26.6500   27.6000   35.5500 N   0  0  0  0  0  0  0  0  0  0  0  0
   27.7900   28.2700   35.6200 N   0  0  0  0  0  0  0  0  0  0  0  0
   28.5400   28.3000   34.5100 C   0  0  0  0  0  0  0  0  0  0  0  0
   29.7700   28.9400   34.5600 C   0  0  0  0  0  0  0  0  0  0  0  0
   30.7000   28.8900   33.5000 C   0  0  0  0  0  0  0  0  0  0  0  0
   30.3700   28.1400   32.3700 C   0  0  0  0  0  0  0  0  0  0  0  0
   29.1200   27.5200   32.2800 C   0  0  0  0  0  0  0  0  0  0  0  0
   28.2100   27.6100   33.3300 C   0  0  0  0  0  0  0  0  0  0  0  0
   26.9700   26.9700   33.3100 C   0  0  0  0  0  0  0  0  0  0  0  0
   26.5300   26.2400   32.2200 N   0  0  0  0  0  0  0  0  0  0  0  0
   30.1486   29.6606   35.7452 N   0  0  0  0  0  0  0  0  0  0  0  0
   31.0088   29.0002   36.7345 C   0  0  0  0  0  0  0  0  0  0  0  0
   30.4024   29.0913   38.1102 C   0  0  0  0  0  0  0  0  0  0  0  0
   29.4058   28.1628   38.5093 C   0  0  0  0  0  0  0  0  0  0  0  0
   28.8089   28.2568   39.7792 C   0  0  0  0  0  0  0  0  0  0  0  0
   29.2244   29.2864   40.6184 C   0  0  0  0  0  0  0  0  0  0  0  0
   28.7895   29.5845   41.8963 O   0  0  0  0  0  0  0  0  0  0  0  0
   29.5035   30.7445   42.3486 C   0  0  0  0  0  0  0  0  0  0  0  0
   30.3778   31.0904   41.2646 O   0  0  0  0  0  0  0  0  0  0  0  0
   30.1715   30.1827   40.2424 C   0  0  0  0  0  0  0  0  0  0  0  0
   30.7920   30.1224   38.9971 C   0  0  0  0  0  0  0  0  0  0  0  0
   29.9657   31.1179   35.7751 C   0  0  0  0  0  0  0  0  0  0  0  0
   28.5190   31.4734   36.0990 C   0  0  0  0  0  0  0  0  0  0  0  0
  1  2  1  0
  2  3  2  0
  2  4  1  0
  4  5  2  0
  5  6  1  0
  6  7  2  0
  7  8  1  0
  8  9  2  0
  9 10  1  0
 10 11  2  0
 11 12  1  0
 12 13  2  0
 13 14  1  0
  8 15  1  0
 15 16  1  0
 16 17  1  0
 17 18  2  0
 18 19  1  0
 19 20  2  0
 20 21  1  0
 21 22  1  0
 22 23  1  0
 23 24  1  0
 24 25  2  0
 15 26  1  0
 26 27  1  0
 13  4  1  0
 25 17  1  0
 12  7  1  0
 24 20  1  0
M  END
>  <AAScore>  (1) 
-1.7774898415964455

>  <RootName>  (1) 
./4ZLY/04_DeltaGEst/trajectory_04/rank_01/lead_0463

$$$$
