confid_14
     RDKit          3D

 27 30  0  0  0  0  0  0  0  0999 V2000
   24.6900   26.1200   35.5300 N   0  0  0  0  0  0  0  0  0  0  0  0
   25.6600   25.6700   34.6600 C   0  0  0  0  0  0  0  0  0  0  0  0
   25.2400   25.0100   33.7200 O   0  0  0  0  0  0  0  0  0  0  0  0
   27.0300   26.2200   34.8800 C   0  0  0  0  0  0  0  0  0  0  0  0
   27.3500   26.7300   36.0700 N   0  0  0  0  0  0  0  0  0  0  0  0
   28.5700   27.1800   36.3300 N   0  0  0  0  0  0  0  0  0  0  0  0
   29.5300   27.1100   35.3900 C   0  0  0  0  0  0  0  0  0  0  0  0
   30.8300   27.5700   35.6500 C   0  0  0  0  0  0  0  0  0  0  0  0
   31.8500   27.5400   34.6900 C   0  0  0  0  0  0  0  0  0  0  0  0
   31.5100   27.1200   33.4000 C   0  0  0  0  0  0  0  0  0  0  0  0
   30.2200   26.6300   33.1100 C   0  0  0  0  0  0  0  0  0  0  0  0
   29.2400   26.6600   34.1000 C   0  0  0  0  0  0  0  0  0  0  0  0
   27.9300   26.2600   33.8100 C   0  0  0  0  0  0  0  0  0  0  0  0
   27.5200   25.7100   32.6100 N   0  0  0  0  0  0  0  0  0  0  0  0
   31.1464   28.0564   36.9599 N   0  0  0  0  0  0  0  0  0  0  0  0
   31.6022   27.1238   37.9963 C   0  0  0  0  0  0  0  0  0  0  0  0
   30.8270   27.3656   39.2990 C   0  0  0  0  0  0  0  0  0  0  0  0
   30.6262   28.8021   39.5545 N   0  0  0  0  0  0  0  0  0  0  0  0
   29.5242   29.2200   40.3814 C   0  0  0  0  0  0  0  0  0  0  0  0
   28.5227   30.0829   39.9749 C   0  0  0  0  0  0  0  0  0  0  0  0
   27.6249   30.1546   41.0207 C   0  0  0  0  0  0  0  0  0  0  0  0
   28.1141   29.3309   42.0187 C   0  0  0  0  0  0  0  0  0  0  0  0
   27.4509   29.1073   43.3432 C   0  0  0  0  0  0  0  0  0  0  0  0
   29.2852   28.7727   41.6350 N   0  0  0  0  0  0  0  0  0  0  0  0
   30.1090   27.8464   42.4111 C   0  0  0  0  0  0  0  0  0  0  0  0
   31.3156   29.7876   38.7119 C   0  0  0  0  0  0  0  0  0  0  0  0
   31.0236   29.4922   37.2392 C   0  0  0  0  0  0  0  0  0  0  0  0
  1  2  1  0
  2  3  2  0
  2  4  1  0
  4  5  2  0
  5  6  1  0
  6  7  2  0
  7  8  1  0
  8  9  2  0
  9 10  1  0
 10 11  2  0
 11 12  1  0
 12 13  2  0
 13 14  1  0
  8 15  1  0
 15 16  1  0
 16 17  1  0
 17 18  1  0
 18 19  1  0
 19 20  2  0
 20 21  1  0
 21 22  2  0
 22 23  1  0
 22 24  1  0
 24 25  1  0
 18 26  1  0
 26 27  1  0
 13  4  1  0
 27 15  1  0
 12  7  1  0
 24 19  1  0
M  END
>  <AAScore>  (1) 
-4.418766264475614

>  <RootName>  (1) 
./4ZLY/04_DeltaGEst/trajectory_02/rank_01/lead_0005

$$$$
