confid_8
     RDKit          3D

 27 30  0  0  0  0  0  0  0  0999 V2000
   24.6900   26.1200   35.5300 N   0  0  0  0  0  0  0  0  0  0  0  0
   25.6600   25.6700   34.6600 C   0  0  0  0  0  0  0  0  0  0  0  0
   25.2400   25.0100   33.7200 O   0  0  0  0  0  0  0  0  0  0  0  0
   27.0300   26.2200   34.8800 C   0  0  0  0  0  0  0  0  0  0  0  0
   27.3500   26.7300   36.0700 N   0  0  0  0  0  0  0  0  0  0  0  0
   28.5700   27.1800   36.3300 N   0  0  0  0  0  0  0  0  0  0  0  0
   29.5300   27.1100   35.3900 C   0  0  0  0  0  0  0  0  0  0  0  0
   30.8300   27.5700   35.6500 C   0  0  0  0  0  0  0  0  0  0  0  0
   31.8500   27.5400   34.6900 C   0  0  0  0  0  0  0  0  0  0  0  0
   31.5100   27.1200   33.4000 C   0  0  0  0  0  0  0  0  0  0  0  0
   30.2200   26.6300   33.1100 C   0  0  0  0  0  0  0  0  0  0  0  0
   29.2400   26.6600   34.1000 C   0  0  0  0  0  0  0  0  0  0  0  0
   27.9300   26.2600   33.8100 C   0  0  0  0  0  0  0  0  0  0  0  0
   27.5200   25.7100   32.6100 N   0  0  0  0  0  0  0  0  0  0  0  0
   31.1840   28.0729   37.0011 C   0  0  0  0  0  0  0  0  0  0  0  0
   30.9787   27.2749   38.1379 C   0  0  0  0  0  0  0  0  0  0  0  0
   31.3015   27.7519   39.4132 C   0  0  0  0  0  0  0  0  0  0  0  0
   31.0276   26.9425   40.5177 O   0  0  0  0  0  0  0  0  0  0  0  0
   30.2287   27.3873   41.6102 C   0  0  0  0  0  0  0  0  0  0  0  0
   30.9907   28.3368   42.5343 C   0  0  0  0  0  0  0  0  0  0  0  0
   31.2745   29.6258   41.8629 N   0  0  0  0  0  0  0  0  0  0  0  0
   31.5669   30.6818   42.8604 C   0  0  0  0  0  0  0  0  0  0  0  0
   31.1918   32.0559   42.3080 C   0  0  0  0  0  0  0  0  0  0  0  0
   32.3949   29.4832   40.9033 C   0  0  0  0  0  0  0  0  0  0  0  0
   31.8912   29.0220   39.5609 C   0  0  0  0  0  0  0  0  0  0  0  0
   32.1006   29.8172   38.4211 C   0  0  0  0  0  0  0  0  0  0  0  0
   31.7462   29.3487   37.1542 C   0  0  0  0  0  0  0  0  0  0  0  0
  1  2  1  0
  2  3  2  0
  2  4  1  0
  4  5  2  0
  5  6  1  0
  6  7  2  0
  7  8  1  0
  8  9  2  0
  9 10  1  0
 10 11  2  0
 11 12  1  0
 12 13  2  0
 13 14  1  0
  8 15  1  0
 15 16  2  0
 16 17  1  0
 17 18  1  0
 18 19  1  0
 19 20  1  0
 20 21  1  0
 21 22  1  0
 22 23  1  0
 21 24  1  0
 24 25  1  0
 25 26  1  0
 26 27  2  0
 13  4  1  0
 27 15  1  0
 12  7  1  0
 25 17  2  0
M  END
>  <AAScore>  (1) 
33.494491563779135

>  <RootName>  (1) 
./4ZLY/04_DeltaGEst/trajectory_02/rank_01/lead_0310

$$$$
