confid_15
     RDKit          3D

 30 33  0  0  0  0  0  0  0  0999 V2000
   25.3300   26.2600   34.7600 N   0  0  0  0  0  0  0  0  0  0  0  0
   26.1200   25.9200   33.6900 C   0  0  0  0  0  0  0  0  0  0  0  0
   25.6300   25.1100   32.9400 O   0  0  0  0  0  0  0  0  0  0  0  0
   27.5200   26.3800   33.4600 C   0  0  0  0  0  0  0  0  0  0  0  0
   28.1600   26.6300   34.6100 N   0  0  0  0  0  0  0  0  0  0  0  0
   29.4800   26.8500   34.5700 N   0  0  0  0  0  0  0  0  0  0  0  0
   30.1900   26.7800   33.4400 C   0  0  0  0  0  0  0  0  0  0  0  0
   31.5600   27.0500   33.5000 C   0  0  0  0  0  0  0  0  0  0  0  0
   32.2700   27.2400   32.3100 C   0  0  0  0  0  0  0  0  0  0  0  0
   31.6100   27.2500   31.0800 C   0  0  0  0  0  0  0  0  0  0  0  0
   30.2700   26.8700   31.0600 C   0  0  0  0  0  0  0  0  0  0  0  0
   29.5100   26.6900   32.2300 C   0  0  0  0  0  0  0  0  0  0  0  0
   28.1400   26.4100   32.2000 C   0  0  0  0  0  0  0  0  0  0  0  0
   27.4300   26.1300   31.0500 N   0  0  0  0  0  0  0  0  0  0  0  0
   23.8915   26.2052   34.7827 C   0  0  0  0  0  0  0  0  0  0  0  0
   23.2585   26.0251   35.9736 N   0  0  0  0  0  0  0  0  0  0  0  0
   21.9042   25.9944   36.0774 C   0  0  0  0  0  0  0  0  0  0  0  0
   21.1066   26.1492   34.9368 C   0  0  0  0  0  0  0  0  0  0  0  0
   19.6049   26.1685   35.0455 C   0  0  0  0  0  0  0  0  0  0  0  0
   18.9875   25.6242   33.8288 N   0  0  0  0  0  0  0  0  0  0  0  0
   19.5689   25.9301   32.5448 C   0  0  0  0  0  0  0  0  0  0  0  0
   18.9529   25.6525   31.4802 O   0  0  0  0  0  0  0  0  0  0  0  0
   20.8986   26.6230   32.4617 C   0  0  0  0  0  0  0  0  0  0  0  0
   21.7275   26.3624   33.6931 C   0  0  0  0  0  0  0  0  0  0  0  0
   23.1263   26.4063   33.6207 C   0  0  0  0  0  0  0  0  0  0  0  0
   17.7322   24.8666   33.9266 C   0  0  0  0  0  0  0  0  0  0  0  0
   17.9944   23.3631   33.8340 C   0  0  0  0  0  0  0  0  0  0  0  0
   16.8025   22.6787   33.9858 F   0  0  0  0  0  0  0  0  0  0  0  0
   18.5403   23.0428   32.6045 F   0  0  0  0  0  0  0  0  0  0  0  0
   18.8667   22.9727   34.8343 F   0  0  0  0  0  0  0  0  0  0  0  0
  1  2  1  0
  2  3  2  0
  2  4  1  0
  4  5  2  0
  5  6  1  0
  6  7  2  0
  7  8  1  0
  8  9  2  0
  9 10  1  0
 10 11  2  0
 11 12  1  0
 12 13  2  0
 13 14  1  0
  1 15  1  0
 15 16  2  0
 16 17  1  0
 17 18  2  0
 18 19  1  0
 19 20  1  0
 20 21  1  0
 21 22  2  0
 21 23  1  0
 23 24  1  0
 24 25  2  0
 20 26  1  0
 26 27  1  0
 27 28  1  0
 27 29  1  0
 27 30  1  0
 13  4  1  0
 25 15  1  0
 12  7  1  0
 24 18  1  0
M  END
>  <AAScore>  (1) 
2629.3309787565

>  <RootName>  (1) 
./4ZLY/04_DeltaGEst/trajectory_03/rank_00/lead_0029

$$$$
