confid_4
     RDKit          3D

 31 34  0  0  0  0  0  0  0  0999 V2000
   25.3300   26.2600   34.7600 N   0  0  0  0  0  0  0  0  0  0  0  0
   26.1200   25.9200   33.6900 C   0  0  0  0  0  0  0  0  0  0  0  0
   25.6300   25.1100   32.9400 O   0  0  0  0  0  0  0  0  0  0  0  0
   27.5200   26.3800   33.4600 C   0  0  0  0  0  0  0  0  0  0  0  0
   28.1600   26.6300   34.6100 N   0  0  0  0  0  0  0  0  0  0  0  0
   29.4800   26.8500   34.5700 N   0  0  0  0  0  0  0  0  0  0  0  0
   30.1900   26.7800   33.4400 C   0  0  0  0  0  0  0  0  0  0  0  0
   31.5600   27.0500   33.5000 C   0  0  0  0  0  0  0  0  0  0  0  0
   32.2700   27.2400   32.3100 C   0  0  0  0  0  0  0  0  0  0  0  0
   31.6100   27.2500   31.0800 C   0  0  0  0  0  0  0  0  0  0  0  0
   30.2700   26.8700   31.0600 C   0  0  0  0  0  0  0  0  0  0  0  0
   29.5100   26.6900   32.2300 C   0  0  0  0  0  0  0  0  0  0  0  0
   28.1400   26.4100   32.2000 C   0  0  0  0  0  0  0  0  0  0  0  0
   27.4300   26.1300   31.0500 N   0  0  0  0  0  0  0  0  0  0  0  0
   24.1784   25.5232   35.2126 C   0  0  0  0  0  0  0  0  0  0  0  0
   24.0682   25.2266   36.5328 N   0  0  0  0  0  0  0  0  0  0  0  0
   23.0367   24.4983   37.0250 C   0  0  0  0  0  0  0  0  0  0  0  0
   22.0329   24.0030   36.1743 C   0  0  0  0  0  0  0  0  0  0  0  0
   20.9535   23.1435   36.8035 C   0  0  0  0  0  0  0  0  0  0  0  0
   20.4833   22.0025   35.9000 C   0  0  0  0  0  0  0  0  0  0  0  0
   19.4559   22.4788   34.9681 N   0  0  0  0  0  0  0  0  0  0  0  0
   18.2211   21.7542   34.8459 C   0  0  0  0  0  0  0  0  0  0  0  0
   17.1278   22.3675   34.9905 O   0  0  0  0  0  0  0  0  0  0  0  0
   18.2218   20.3441   34.5392 N   0  0  0  0  0  0  0  0  0  0  0  0
   17.1195   19.4818   34.9892 C   0  0  0  0  0  0  0  0  0  0  0  0
   16.0283   19.4000   33.9276 C   0  0  0  0  0  0  0  0  0  0  0  0
   19.2422   19.8125   33.6281 C   0  0  0  0  0  0  0  0  0  0  0  0
   19.6183   23.7550   34.2642 C   0  0  0  0  0  0  0  0  0  0  0  0
   21.0535   23.9291   33.7558 C   0  0  0  0  0  0  0  0  0  0  0  0
   22.0613   24.3846   34.7994 C   0  0  0  0  0  0  0  0  0  0  0  0
   23.1570   25.1338   34.3336 C   0  0  0  0  0  0  0  0  0  0  0  0
  1  2  1  0
  2  3  2  0
  2  4  1  0
  4  5  2  0
  5  6  1  0
  6  7  2  0
  7  8  1  0
  8  9  2  0
  9 10  1  0
 10 11  2  0
 11 12  1  0
 12 13  2  0
 13 14  1  0
  1 15  1  0
 15 16  2  0
 16 17  1  0
 17 18  2  0
 18 19  1  0
 19 20  1  0
 20 21  1  0
 21 22  1  0
 22 23  2  0
 22 24  1  0
 24 25  1  0
 25 26  1  0
 24 27  1  0
 21 28  1  0
 28 29  1  0
 29 30  1  0
 30 31  2  0
 13  4  1  0
 31 15  1  0
 12  7  1  0
 30 18  1  0
M  END
>  <AAScore>  (1) 
5566.396573376924

>  <RootName>  (1) 
./4ZLY/04_DeltaGEst/trajectory_03/rank_00/lead_0484

$$$$
