confid_3
     RDKit          3D

 29 32  0  0  0  0  0  0  0  0999 V2000
   24.6900   26.1200   35.5300 N   0  0  0  0  0  0  0  0  0  0  0  0
   25.6600   25.6700   34.6600 C   0  0  0  0  0  0  0  0  0  0  0  0
   25.2400   25.0100   33.7200 O   0  0  0  0  0  0  0  0  0  0  0  0
   27.0300   26.2200   34.8800 C   0  0  0  0  0  0  0  0  0  0  0  0
   27.3500   26.7300   36.0700 N   0  0  0  0  0  0  0  0  0  0  0  0
   28.5700   27.1800   36.3300 N   0  0  0  0  0  0  0  0  0  0  0  0
   29.5300   27.1100   35.3900 C   0  0  0  0  0  0  0  0  0  0  0  0
   30.8300   27.5700   35.6500 C   0  0  0  0  0  0  0  0  0  0  0  0
   31.8500   27.5400   34.6900 C   0  0  0  0  0  0  0  0  0  0  0  0
   31.5100   27.1200   33.4000 C   0  0  0  0  0  0  0  0  0  0  0  0
   30.2200   26.6300   33.1100 C   0  0  0  0  0  0  0  0  0  0  0  0
   29.2400   26.6600   34.1000 C   0  0  0  0  0  0  0  0  0  0  0  0
   27.9300   26.2600   33.8100 C   0  0  0  0  0  0  0  0  0  0  0  0
   27.5200   25.7100   32.6100 N   0  0  0  0  0  0  0  0  0  0  0  0
   23.2919   26.2542   35.2119 C   0  0  0  0  0  0  0  0  0  0  0  0
   22.3749   26.0617   36.1924 N   0  0  0  0  0  0  0  0  0  0  0  0
   21.0427   26.1747   35.9686 C   0  0  0  0  0  0  0  0  0  0  0  0
   20.5479   26.5042   34.6932 C   0  0  0  0  0  0  0  0  0  0  0  0
   19.0461   26.6439   34.5561 C   0  0  0  0  0  0  0  0  0  0  0  0
   18.5259   26.0420   33.2887 C   0  0  0  0  0  0  0  0  0  0  0  0
   17.9207   24.9361   33.3273 O   0  0  0  0  0  0  0  0  0  0  0  0
   18.7265   26.7172   32.0370 N   0  0  0  0  0  0  0  0  0  0  0  0
   17.9610   26.3208   30.8460 C   0  0  0  0  0  0  0  0  0  0  0  0
   16.5029   26.7736   30.9746 C   0  0  0  0  0  0  0  0  0  0  0  0
   15.7011   26.4254   29.7234 C   0  0  0  0  0  0  0  0  0  0  0  0
   19.7687   27.7464   31.9478 C   0  0  0  0  0  0  0  0  0  0  0  0
   21.1439   27.1255   32.2075 C   0  0  0  0  0  0  0  0  0  0  0  0
   21.4876   26.7875   33.6546 C   0  0  0  0  0  0  0  0  0  0  0  0
   22.8592   26.6414   33.9360 C   0  0  0  0  0  0  0  0  0  0  0  0
  1  2  1  0
  2  3  2  0
  2  4  1  0
  4  5  2  0
  5  6  1  0
  6  7  2  0
  7  8  1  0
  8  9  2  0
  9 10  1  0
 10 11  2  0
 11 12  1  0
 12 13  2  0
 13 14  1  0
  1 15  1  0
 15 16  2  0
 16 17  1  0
 17 18  2  0
 18 19  1  0
 19 20  1  0
 20 21  2  0
 20 22  1  0
 22 23  1  0
 23 24  1  0
 24 25  1  0
 22 26  1  0
 26 27  1  0
 27 28  1  0
 28 29  2  0
 13  4  1  0
 29 15  1  0
 12  7  1  0
 28 18  1  0
M  END
>  <AAScore>  (1) 
383.2112564645753

>  <RootName>  (1) 
./4ZLY/04_DeltaGEst/trajectory_02/rank_00/lead_0305

$$$$
