confid_6
     RDKit          3D

 26 29  0  0  0  0  0  0  0  0999 V2000
   24.5500   26.3900   36.2500 N   0  0  0  0  0  0  0  0  0  0  0  0
   25.6000   26.1300   35.4000 C   0  0  0  0  0  0  0  0  0  0  0  0
   25.4300   25.4300   34.4200 O   0  0  0  0  0  0  0  0  0  0  0  0
   26.9800   26.6300   35.7100 C   0  0  0  0  0  0  0  0  0  0  0  0
   27.3200   26.8200   36.9800 N   0  0  0  0  0  0  0  0  0  0  0  0
   28.4700   27.4000   37.3100 N   0  0  0  0  0  0  0  0  0  0  0  0
   29.4000   27.6300   36.3700 C   0  0  0  0  0  0  0  0  0  0  0  0
   30.6600   28.0500   36.8000 C   0  0  0  0  0  0  0  0  0  0  0  0
   31.5700   28.3600   35.7800 C   0  0  0  0  0  0  0  0  0  0  0  0
   31.3700   28.1000   34.4300 C   0  0  0  0  0  0  0  0  0  0  0  0
   30.1200   27.5900   34.0500 C   0  0  0  0  0  0  0  0  0  0  0  0
   29.1500   27.3400   35.0300 C   0  0  0  0  0  0  0  0  0  0  0  0
   27.8800   26.8900   34.6600 C   0  0  0  0  0  0  0  0  0  0  0  0
   27.4800   26.6100   33.3700 N   0  0  0  0  0  0  0  0  0  0  0  0
   30.9675   28.2780   38.1860 N   0  0  0  0  0  0  0  0  0  0  0  0
   31.4930   29.5858   38.6101 C   0  0  0  0  0  0  0  0  0  0  0  0
   30.8881   29.9937   39.9602 C   0  0  0  0  0  0  0  0  0  0  0  0
   30.9043   28.8364   40.9068 C   0  0  0  0  0  0  0  0  0  0  0  0
   30.6885   28.9049   42.5725 S   0  0  0  0  0  0  0  0  0  0  0  0
   30.7103   27.2339   42.8042 C   0  0  0  0  0  0  0  0  0  0  0  0
   30.5123   26.5467   44.1157 C   0  0  0  0  0  0  0  0  0  0  0  0
   29.0821   26.3548   44.3676 C   0  0  0  0  0  0  0  0  0  0  0  0
   27.9522   26.2029   44.5661 N   0  0  0  0  0  0  0  0  0  0  0  0
   30.8504   26.6030   41.5712 C   0  0  0  0  0  0  0  0  0  0  0  0
   30.9476   27.5086   40.5078 C   0  0  0  0  0  0  0  0  0  0  0  0
   31.1323   27.1144   39.0720 C   0  0  0  0  0  0  0  0  0  0  0  0
  1  2  1  0
  2  3  2  0
  2  4  1  0
  4  5  2  0
  5  6  1  0
  6  7  2  0
  7  8  1  0
  8  9  2  0
  9 10  1  0
 10 11  2  0
 11 12  1  0
 12 13  2  0
 13 14  1  0
  8 15  1  0
 15 16  1  0
 16 17  1  0
 17 18  1  0
 18 19  1  0
 19 20  1  0
 20 21  1  0
 21 22  1  0
 22 23  3  0
 20 24  2  0
 24 25  1  0
 25 26  1  0
 13  4  1  0
 26 15  1  0
 12  7  1  0
 25 18  2  0
M  END
>  <AAScore>  (1) 
17.043404568545387

>  <RootName>  (1) 
./4ZLY/04_DeltaGEst/trajectory_01/rank_01/lead_0032

$$$$
