confid_8
     RDKit          3D

 28 31  0  0  0  0  0  0  0  0999 V2000
   24.5500   26.3900   36.2500 N   0  0  0  0  0  0  0  0  0  0  0  0
   25.6000   26.1300   35.4000 C   0  0  0  0  0  0  0  0  0  0  0  0
   25.4300   25.4300   34.4200 O   0  0  0  0  0  0  0  0  0  0  0  0
   26.9800   26.6300   35.7100 C   0  0  0  0  0  0  0  0  0  0  0  0
   27.3200   26.8200   36.9800 N   0  0  0  0  0  0  0  0  0  0  0  0
   28.4700   27.4000   37.3100 N   0  0  0  0  0  0  0  0  0  0  0  0
   29.4000   27.6300   36.3700 C   0  0  0  0  0  0  0  0  0  0  0  0
   30.6600   28.0500   36.8000 C   0  0  0  0  0  0  0  0  0  0  0  0
   31.5700   28.3600   35.7800 C   0  0  0  0  0  0  0  0  0  0  0  0
   31.3700   28.1000   34.4300 C   0  0  0  0  0  0  0  0  0  0  0  0
   30.1200   27.5900   34.0500 C   0  0  0  0  0  0  0  0  0  0  0  0
   29.1500   27.3400   35.0300 C   0  0  0  0  0  0  0  0  0  0  0  0
   27.8800   26.8900   34.6600 C   0  0  0  0  0  0  0  0  0  0  0  0
   27.4800   26.6100   33.3700 N   0  0  0  0  0  0  0  0  0  0  0  0
   23.2603   25.6870   36.1674 C   0  0  0  0  0  0  0  0  0  0  0  0
   23.4042   24.2228   36.6308 C   0  0  0  0  0  0  0  0  0  0  0  0
   23.6752   24.1359   38.1353 C   0  0  0  0  0  0  0  0  0  0  0  0
   22.6412   24.8765   38.8653 N   0  0  0  0  0  0  0  0  0  0  0  0
   21.8259   24.2360   39.8624 C   0  0  0  0  0  0  0  0  0  0  0  0
   20.5803   24.4293   39.8621 O   0  0  0  0  0  0  0  0  0  0  0  0
   22.4168   23.3647   40.8959 C   0  0  0  0  0  0  0  0  0  0  0  0
   23.7516   23.2871   41.2585 C   0  0  0  0  0  0  0  0  0  0  0  0
   23.8221   22.3608   42.2801 C   0  0  0  0  0  0  0  0  0  0  0  0
   22.5890   21.8979   42.5618 N   0  0  0  0  0  0  0  0  0  0  0  0
   22.2668   20.8544   43.5271 C   0  0  0  0  0  0  0  0  0  0  0  0
   21.7254   22.4961   41.7199 C   0  0  0  0  0  0  0  0  0  0  0  0
   22.4121   26.2800   38.5072 C   0  0  0  0  0  0  0  0  0  0  0  0
   22.1758   26.4107   36.9956 C   0  0  0  0  0  0  0  0  0  0  0  0
  1  2  1  0
  2  3  2  0
  2  4  1  0
  4  5  2  0
  5  6  1  0
  6  7  2  0
  7  8  1  0
  8  9  2  0
  9 10  1  0
 10 11  2  0
 11 12  1  0
 12 13  2  0
 13 14  1  0
  1 15  1  0
 15 16  1  0
 16 17  1  0
 17 18  1  0
 18 19  1  0
 19 20  2  0
 19 21  1  0
 21 22  1  0
 22 23  2  0
 23 24  1  0
 24 25  1  0
 24 26  1  0
 18 27  1  0
 27 28  1  0
 13  4  1  0
 28 15  1  0
 12  7  1  0
 26 21  2  0
M  END
>  <AAScore>  (1) 
796.9193488430758

>  <RootName>  (1) 
./4ZLY/04_DeltaGEst/trajectory_01/rank_00/lead_0435

$$$$
