confid_3
     RDKit          3D

 27 30  0  0  0  0  0  0  0  0999 V2000
   24.5500   26.3900   36.2500 N   0  0  0  0  0  0  0  0  0  0  0  0
   25.6000   26.1300   35.4000 C   0  0  0  0  0  0  0  0  0  0  0  0
   25.4300   25.4300   34.4200 O   0  0  0  0  0  0  0  0  0  0  0  0
   26.9800   26.6300   35.7100 C   0  0  0  0  0  0  0  0  0  0  0  0
   27.3200   26.8200   36.9800 N   0  0  0  0  0  0  0  0  0  0  0  0
   28.4700   27.4000   37.3100 N   0  0  0  0  0  0  0  0  0  0  0  0
   29.4000   27.6300   36.3700 C   0  0  0  0  0  0  0  0  0  0  0  0
   30.6600   28.0500   36.8000 C   0  0  0  0  0  0  0  0  0  0  0  0
   31.5700   28.3600   35.7800 C   0  0  0  0  0  0  0  0  0  0  0  0
   31.3700   28.1000   34.4300 C   0  0  0  0  0  0  0  0  0  0  0  0
   30.1200   27.5900   34.0500 C   0  0  0  0  0  0  0  0  0  0  0  0
   29.1500   27.3400   35.0300 C   0  0  0  0  0  0  0  0  0  0  0  0
   27.8800   26.8900   34.6600 C   0  0  0  0  0  0  0  0  0  0  0  0
   27.4800   26.6100   33.3700 N   0  0  0  0  0  0  0  0  0  0  0  0
   30.9638   28.3043   38.1802 N   0  0  0  0  0  0  0  0  0  0  0  0
   31.0225   29.6907   38.6574 C   0  0  0  0  0  0  0  0  0  0  0  0
   29.6565   30.1463   39.1832 C   0  0  0  0  0  0  0  0  0  0  0  0
   28.9617   29.1716   40.1017 C   0  0  0  0  0  0  0  0  0  0  0  0
   27.3536   29.3475   40.5651 S   0  0  0  0  0  0  0  0  0  0  0  0
   27.3495   27.9461   41.4973 C   0  0  0  0  0  0  0  0  0  0  0  0
   26.2229   27.4401   42.2351 N   0  0  0  0  0  0  0  0  0  0  0  0
   24.9406   28.1498   42.1984 C   0  0  0  0  0  0  0  0  0  0  0  0
   26.3734   26.2103   43.0161 C   0  0  0  0  0  0  0  0  0  0  0  0
   28.5531   27.3338   41.4718 N   0  0  0  0  0  0  0  0  0  0  0  0
   29.4557   28.0016   40.7036 C   0  0  0  0  0  0  0  0  0  0  0  0
   30.8551   27.4826   40.5471 C   0  0  0  0  0  0  0  0  0  0  0  0
   31.1799   27.1626   39.0813 C   0  0  0  0  0  0  0  0  0  0  0  0
  1  2  1  0
  2  3  2  0
  2  4  1  0
  4  5  2  0
  5  6  1  0
  6  7  2  0
  7  8  1  0
  8  9  2  0
  9 10  1  0
 10 11  2  0
 11 12  1  0
 12 13  2  0
 13 14  1  0
  8 15  1  0
 15 16  1  0
 16 17  1  0
 17 18  1  0
 18 19  1  0
 19 20  1  0
 20 21  1  0
 21 22  1  0
 21 23  1  0
 20 24  2  0
 24 25  1  0
 25 26  1  0
 26 27  1  0
 13  4  1  0
 27 15  1  0
 12  7  1  0
 25 18  2  0
M  END
>  <AAScore>  (1) 
31.390358219371176

>  <RootName>  (1) 
./4ZLY/04_DeltaGEst/trajectory_01/rank_01/lead_0269

$$$$
