confid_13
     RDKit          3D

 29 33  0  0  0  0  0  0  0  0999 V2000
   25.3300   26.2600   34.7600 N   0  0  0  0  0  0  0  0  0  0  0  0
   26.1200   25.9200   33.6900 C   0  0  0  0  0  0  0  0  0  0  0  0
   25.6300   25.1100   32.9400 O   0  0  0  0  0  0  0  0  0  0  0  0
   27.5200   26.3800   33.4600 C   0  0  0  0  0  0  0  0  0  0  0  0
   28.1600   26.6300   34.6100 N   0  0  0  0  0  0  0  0  0  0  0  0
   29.4800   26.8500   34.5700 N   0  0  0  0  0  0  0  0  0  0  0  0
   30.1900   26.7800   33.4400 C   0  0  0  0  0  0  0  0  0  0  0  0
   31.5600   27.0500   33.5000 C   0  0  0  0  0  0  0  0  0  0  0  0
   32.2700   27.2400   32.3100 C   0  0  0  0  0  0  0  0  0  0  0  0
   31.6100   27.2500   31.0800 C   0  0  0  0  0  0  0  0  0  0  0  0
   30.2700   26.8700   31.0600 C   0  0  0  0  0  0  0  0  0  0  0  0
   29.5100   26.6900   32.2300 C   0  0  0  0  0  0  0  0  0  0  0  0
   28.1400   26.4100   32.2000 C   0  0  0  0  0  0  0  0  0  0  0  0
   27.4300   26.1300   31.0500 N   0  0  0  0  0  0  0  0  0  0  0  0
   27.5665   24.8093   30.4203 C   0  0  0  0  0  0  0  0  0  0  0  0
   26.5480   24.6187   29.2911 C   0  0  0  0  0  0  0  0  0  0  0  0
   26.5279   25.7918   28.4028 N   0  0  0  0  0  0  0  0  0  0  0  0
   26.2634   25.6299   26.9921 C   0  0  0  0  0  0  0  0  0  0  0  0
   25.3671   24.6242   26.5351 C   0  0  0  0  0  0  0  0  0  0  0  0
   25.1042   24.4673   25.1624 C   0  0  0  0  0  0  0  0  0  0  0  0
   24.2491   23.5135   24.7191 F   0  0  0  0  0  0  0  0  0  0  0  0
   25.7434   25.3239   24.2737 C   0  0  0  0  0  0  0  0  0  0  0  0
   26.5969   26.2883   24.6973 C   0  0  0  0  0  0  0  0  0  0  0  0
   26.8858   26.4796   26.0452 C   0  0  0  0  0  0  0  0  0  0  0  0
   27.0825   26.9844   23.6071 O   0  0  0  0  0  0  0  0  0  0  0  0
   26.4959   26.4219   22.4250 C   0  0  0  0  0  0  0  0  0  0  0  0
   25.6479   25.3651   22.8960 O   0  0  0  0  0  0  0  0  0  0  0  0
   26.6317   27.1487   28.9670 C   0  0  0  0  0  0  0  0  0  0  0  0
   26.5203   27.1359   30.4934 C   0  0  0  0  0  0  0  0  0  0  0  0
  1  2  1  0
  2  3  2  0
  2  4  1  0
  4  5  2  0
  5  6  1  0
  6  7  2  0
  7  8  1  0
  8  9  2  0
  9 10  1  0
 10 11  2  0
 11 12  1  0
 12 13  2  0
 13 14  1  0
 14 15  1  0
 15 16  1  0
 16 17  1  0
 17 18  1  0
 18 19  2  0
 19 20  1  0
 20 21  1  0
 20 22  2  0
 22 23  1  0
 23 24  2  0
 23 25  1  0
 25 26  1  0
 26 27  1  0
 17 28  1  0
 28 29  1  0
 13  4  1  0
 29 14  1  0
 12  7  1  0
 24 18  1  0
 27 22  1  0
M  END
>  <AAScore>  (1) 
3.999711152923943

>  <RootName>  (1) 
./4ZLY/04_DeltaGEst/trajectory_03/rank_01/lead_0152

$$$$
