confid_18
     RDKit          3D

 28 31  0  0  0  0  0  0  0  0999 V2000
   24.5500   26.3900   36.2500 N   0  0  0  0  0  0  0  0  0  0  0  0
   25.6000   26.1300   35.4000 C   0  0  0  0  0  0  0  0  0  0  0  0
   25.4300   25.4300   34.4200 O   0  0  0  0  0  0  0  0  0  0  0  0
   26.9800   26.6300   35.7100 C   0  0  0  0  0  0  0  0  0  0  0  0
   27.3200   26.8200   36.9800 N   0  0  0  0  0  0  0  0  0  0  0  0
   28.4700   27.4000   37.3100 N   0  0  0  0  0  0  0  0  0  0  0  0
   29.4000   27.6300   36.3700 C   0  0  0  0  0  0  0  0  0  0  0  0
   30.6600   28.0500   36.8000 C   0  0  0  0  0  0  0  0  0  0  0  0
   31.5700   28.3600   35.7800 C   0  0  0  0  0  0  0  0  0  0  0  0
   31.3700   28.1000   34.4300 C   0  0  0  0  0  0  0  0  0  0  0  0
   30.1200   27.5900   34.0500 C   0  0  0  0  0  0  0  0  0  0  0  0
   29.1500   27.3400   35.0300 C   0  0  0  0  0  0  0  0  0  0  0  0
   27.8800   26.8900   34.6600 C   0  0  0  0  0  0  0  0  0  0  0  0
   27.4800   26.6100   33.3700 N   0  0  0  0  0  0  0  0  0  0  0  0
   23.1630   26.2255   35.9073 C   0  0  0  0  0  0  0  0  0  0  0  0
   22.2794   25.8979   36.8850 N   0  0  0  0  0  0  0  0  0  0  0  0
   20.9529   25.7452   36.6426 C   0  0  0  0  0  0  0  0  0  0  0  0
   20.4352   25.9290   35.3510 C   0  0  0  0  0  0  0  0  0  0  0  0
   18.9392   25.7972   35.1450 C   0  0  0  0  0  0  0  0  0  0  0  0
   18.6500   24.9894   33.9410 N   0  0  0  0  0  0  0  0  0  0  0  0
   17.3864   25.3801   33.2813 C   0  0  0  0  0  0  0  0  0  0  0  0
   17.4631   26.7650   32.6006 C   0  0  0  0  0  0  0  0  0  0  0  0
   18.7972   27.0452   31.8936 C   0  0  0  0  0  0  0  0  0  0  0  0
   19.7786   27.4137   32.8491 O   0  0  0  0  0  0  0  0  0  0  0  0
   20.8686   26.5111   32.8832 C   0  0  0  0  0  0  0  0  0  0  0  0
   21.3260   26.3174   34.3127 C   0  0  0  0  0  0  0  0  0  0  0  0
   22.6926   26.4566   34.6056 C   0  0  0  0  0  0  0  0  0  0  0  0
   18.6376   23.5541   34.2688 C   0  0  0  0  0  0  0  0  0  0  0  0
  1  2  1  0
  2  3  2  0
  2  4  1  0
  4  5  2  0
  5  6  1  0
  6  7  2  0
  7  8  1  0
  8  9  2  0
  9 10  1  0
 10 11  2  0
 11 12  1  0
 12 13  2  0
 13 14  1  0
  1 15  1  0
 15 16  2  0
 16 17  1  0
 17 18  2  0
 18 19  1  0
 19 20  1  0
 20 21  1  0
 21 22  1  0
 22 23  1  0
 23 24  1  0
 24 25  1  0
 25 26  1  0
 26 27  2  0
 20 28  1  0
 13  4  1  0
 27 15  1  0
 12  7  1  0
 26 18  1  0
M  END
>  <AAScore>  (1) 
1927.684787406771

>  <RootName>  (1) 
./4ZLY/04_DeltaGEst/trajectory_01/rank_00/lead_0310

$$$$
