confid_10
     RDKit          3D

 29 32  0  0  0  0  0  0  0  0999 V2000
   24.6900   26.1200   35.5300 N   0  0  0  0  0  0  0  0  0  0  0  0
   25.6600   25.6700   34.6600 C   0  0  0  0  0  0  0  0  0  0  0  0
   25.2400   25.0100   33.7200 O   0  0  0  0  0  0  0  0  0  0  0  0
   27.0300   26.2200   34.8800 C   0  0  0  0  0  0  0  0  0  0  0  0
   27.3500   26.7300   36.0700 N   0  0  0  0  0  0  0  0  0  0  0  0
   28.5700   27.1800   36.3300 N   0  0  0  0  0  0  0  0  0  0  0  0
   29.5300   27.1100   35.3900 C   0  0  0  0  0  0  0  0  0  0  0  0
   30.8300   27.5700   35.6500 C   0  0  0  0  0  0  0  0  0  0  0  0
   31.8500   27.5400   34.6900 C   0  0  0  0  0  0  0  0  0  0  0  0
   31.5100   27.1200   33.4000 C   0  0  0  0  0  0  0  0  0  0  0  0
   30.2200   26.6300   33.1100 C   0  0  0  0  0  0  0  0  0  0  0  0
   29.2400   26.6600   34.1000 C   0  0  0  0  0  0  0  0  0  0  0  0
   27.9300   26.2600   33.8100 C   0  0  0  0  0  0  0  0  0  0  0  0
   27.5200   25.7100   32.6100 N   0  0  0  0  0  0  0  0  0  0  0  0
   31.1792   28.0686   37.0033 C   0  0  0  0  0  0  0  0  0  0  0  0
   31.0691   27.2107   38.1063 C   0  0  0  0  0  0  0  0  0  0  0  0
   31.3875   27.6542   39.3921 C   0  0  0  0  0  0  0  0  0  0  0  0
   31.2069   26.7837   40.4649 O   0  0  0  0  0  0  0  0  0  0  0  0
   29.9811   26.7812   41.1960 C   0  0  0  0  0  0  0  0  0  0  0  0
   30.1955   27.0996   42.6249 N   0  0  0  0  0  0  0  0  0  0  0  0
   30.3688   25.8640   43.4068 C   0  0  0  0  0  0  0  0  0  0  0  0
   31.3405   28.0069   42.8648 C   0  0  0  0  0  0  0  0  0  0  0  0
   31.2436   29.3330   42.0693 C   0  0  0  0  0  0  0  0  0  0  0  0
   32.3078   29.4539   40.9562 C   0  0  0  0  0  0  0  0  0  0  0  0
   31.8447   28.9709   39.5954 C   0  0  0  0  0  0  0  0  0  0  0  0
   31.9634   29.8273   38.4858 C   0  0  0  0  0  0  0  0  0  0  0  0
   31.6258   29.3901   37.1902 C   0  0  0  0  0  0  0  0  0  0  0  0
   31.7154   30.2396   36.0742 O   0  0  0  0  0  0  0  0  0  0  0  0
   32.1518   31.5940   36.1194 C   0  0  0  0  0  0  0  0  0  0  0  0
  1  2  1  0
  2  3  2  0
  2  4  1  0
  4  5  2  0
  5  6  1  0
  6  7  2  0
  7  8  1  0
  8  9  2  0
  9 10  1  0
 10 11  2  0
 11 12  1  0
 12 13  2  0
 13 14  1  0
  8 15  1  0
 15 16  2  0
 16 17  1  0
 17 18  1  0
 18 19  1  0
 19 20  1  0
 20 21  1  0
 20 22  1  0
 22 23  1  0
 23 24  1  0
 24 25  1  0
 25 26  1  0
 26 27  2  0
 27 28  1  0
 28 29  1  0
 13  4  1  0
 27 15  1  0
 12  7  1  0
 25 17  2  0
M  END
>  <AAScore>  (1) 
42.22054382582795

>  <RootName>  (1) 
./4ZLY/04_DeltaGEst/trajectory_02/rank_01/lead_0454

$$$$
