confid_12
     RDKit          3D

 29 33  0  0  0  0  0  0  0  0999 V2000
   25.3300   26.2600   34.7600 N   0  0  0  0  0  0  0  0  0  0  0  0
   26.1200   25.9200   33.6900 C   0  0  0  0  0  0  0  0  0  0  0  0
   25.6300   25.1100   32.9400 O   0  0  0  0  0  0  0  0  0  0  0  0
   27.5200   26.3800   33.4600 C   0  0  0  0  0  0  0  0  0  0  0  0
   28.1600   26.6300   34.6100 N   0  0  0  0  0  0  0  0  0  0  0  0
   29.4800   26.8500   34.5700 N   0  0  0  0  0  0  0  0  0  0  0  0
   30.1900   26.7800   33.4400 C   0  0  0  0  0  0  0  0  0  0  0  0
   31.5600   27.0500   33.5000 C   0  0  0  0  0  0  0  0  0  0  0  0
   32.2700   27.2400   32.3100 C   0  0  0  0  0  0  0  0  0  0  0  0
   31.6100   27.2500   31.0800 C   0  0  0  0  0  0  0  0  0  0  0  0
   30.2700   26.8700   31.0600 C   0  0  0  0  0  0  0  0  0  0  0  0
   29.5100   26.6900   32.2300 C   0  0  0  0  0  0  0  0  0  0  0  0
   28.1400   26.4100   32.2000 C   0  0  0  0  0  0  0  0  0  0  0  0
   27.4300   26.1300   31.0500 N   0  0  0  0  0  0  0  0  0  0  0  0
   23.8933   26.1638   34.8049 C   0  0  0  0  0  0  0  0  0  0  0  0
   23.2811   25.9923   36.0178 N   0  0  0  0  0  0  0  0  0  0  0  0
   21.9268   25.9120   36.1480 C   0  0  0  0  0  0  0  0  0  0  0  0
   21.1380   26.0070   35.0044 C   0  0  0  0  0  0  0  0  0  0  0  0
   19.6610   25.9426   34.8939 C   0  0  0  0  0  0  0  0  0  0  0  0
   19.4325   26.1302   33.4587 N   0  0  0  0  0  0  0  0  0  0  0  0
   18.1350   26.1584   32.8413 C   0  0  0  0  0  0  0  0  0  0  0  0
   18.0284   26.4561   31.6208 O   0  0  0  0  0  0  0  0  0  0  0  0
   16.8969   25.8751   33.6432 C   0  0  0  0  0  0  0  0  0  0  0  0
   16.4781   26.8020   34.5813 F   0  0  0  0  0  0  0  0  0  0  0  0
   15.7927   25.0678   32.9799 C   0  0  0  0  0  0  0  0  0  0  0  0
   16.6805   24.4232   34.0349 C   0  0  0  0  0  0  0  0  0  0  0  0
   20.6834   26.3092   32.7175 C   0  0  0  0  0  0  0  0  0  0  0  0
   21.7174   26.2036   33.7772 C   0  0  0  0  0  0  0  0  0  0  0  0
   23.1009   26.2959   33.6410 C   0  0  0  0  0  0  0  0  0  0  0  0
  1  2  1  0
  2  3  2  0
  2  4  1  0
  4  5  2  0
  5  6  1  0
  6  7  2  0
  7  8  1  0
  8  9  2  0
  9 10  1  0
 10 11  2  0
 11 12  1  0
 12 13  2  0
 13 14  1  0
  1 15  1  0
 15 16  2  0
 16 17  1  0
 17 18  2  0
 18 19  1  0
 19 20  1  0
 20 21  1  0
 21 22  2  0
 21 23  1  0
 23 24  1  0
 23 25  1  0
 25 26  1  0
 20 27  1  0
 27 28  1  0
 28 29  2  0
 13  4  1  0
 29 15  1  0
 12  7  1  0
 28 18  1  0
 26 23  1  0
M  END
>  <AAScore>  (1) 
11519.91952330914

>  <RootName>  (1) 
./4ZLY/04_DeltaGEst/trajectory_03/rank_00/lead_0302

$$$$
