confid_3
     RDKit          3D

 29 32  0  0  0  0  0  0  0  0999 V2000
   24.2000   26.2400   35.6900 N   0  0  0  0  0  0  0  0  0  0  0  0
   24.8500   26.2800   34.4800 C   0  0  0  0  0  0  0  0  0  0  0  0
   24.3100   25.7400   33.5400 O   0  0  0  0  0  0  0  0  0  0  0  0
   26.1800   26.9700   34.4700 C   0  0  0  0  0  0  0  0  0  0  0  0
   26.6500   27.6000   35.5500 N   0  0  0  0  0  0  0  0  0  0  0  0
   27.7900   28.2700   35.6200 N   0  0  0  0  0  0  0  0  0  0  0  0
   28.5400   28.3000   34.5100 C   0  0  0  0  0  0  0  0  0  0  0  0
   29.7700   28.9400   34.5600 C   0  0  0  0  0  0  0  0  0  0  0  0
   30.7000   28.8900   33.5000 C   0  0  0  0  0  0  0  0  0  0  0  0
   30.3700   28.1400   32.3700 C   0  0  0  0  0  0  0  0  0  0  0  0
   29.1200   27.5200   32.2800 C   0  0  0  0  0  0  0  0  0  0  0  0
   28.2100   27.6100   33.3300 C   0  0  0  0  0  0  0  0  0  0  0  0
   26.9700   26.9700   33.3100 C   0  0  0  0  0  0  0  0  0  0  0  0
   26.5300   26.2400   32.2200 N   0  0  0  0  0  0  0  0  0  0  0  0
   30.1436   29.6861   35.7327 N   0  0  0  0  0  0  0  0  0  0  0  0
   29.3368   30.8224   36.1887 C   0  0  0  0  0  0  0  0  0  0  0  0
   30.2591   31.9633   36.6220 C   0  0  0  0  0  0  0  0  0  0  0  0
   31.2476   31.4641   37.5990 N   0  0  0  0  0  0  0  0  0  0  0  0
   32.0312   32.5529   38.2228 C   0  0  0  0  0  0  0  0  0  0  0  0
   32.8809   33.3242   37.2460 C   0  0  0  0  0  0  0  0  0  0  0  0
   34.1787   33.0267   36.8726 C   0  0  0  0  0  0  0  0  0  0  0  0
   34.5336   33.9700   35.9289 C   0  0  0  0  0  0  0  0  0  0  0  0
   33.5145   34.8319   35.7345 N   0  0  0  0  0  0  0  0  0  0  0  0
   33.4673   35.8993   34.7378 C   0  0  0  0  0  0  0  0  0  0  0  0
   34.7310   36.4295   34.5449 F   0  0  0  0  0  0  0  0  0  0  0  0
   32.6198   36.9092   35.1587 F   0  0  0  0  0  0  0  0  0  0  0  0
   32.4949   34.4345   36.5208 C   0  0  0  0  0  0  0  0  0  0  0  0
   32.1030   30.4178   37.0037 C   0  0  0  0  0  0  0  0  0  0  0  0
   31.2443   29.2239   36.5829 C   0  0  0  0  0  0  0  0  0  0  0  0
  1  2  1  0
  2  3  2  0
  2  4  1  0
  4  5  2  0
  5  6  1  0
  6  7  2  0
  7  8  1  0
  8  9  2  0
  9 10  1  0
 10 11  2  0
 11 12  1  0
 12 13  2  0
 13 14  1  0
  8 15  1  0
 15 16  1  0
 16 17  1  0
 17 18  1  0
 18 19  1  0
 19 20  1  0
 20 21  1  0
 21 22  2  0
 22 23  1  0
 23 24  1  0
 24 25  1  0
 24 26  1  0
 23 27  1  0
 18 28  1  0
 28 29  1  0
 13  4  1  0
 29 15  1  0
 12  7  1  0
 27 20  2  0
M  END
>  <AAScore>  (1) 
-7.575350450779149

>  <RootName>  (1) 
./4ZLY/04_DeltaGEst/trajectory_04/rank_01/lead_0098

$$$$
