confid_4
     RDKit          3D

 30 34  0  0  0  0  0  0  0  0999 V2000
   24.2000   26.2400   35.6900 N   0  0  0  0  0  0  0  0  0  0  0  0
   24.8500   26.2800   34.4800 C   0  0  0  0  0  0  0  0  0  0  0  0
   24.3100   25.7400   33.5400 O   0  0  0  0  0  0  0  0  0  0  0  0
   26.1800   26.9700   34.4700 C   0  0  0  0  0  0  0  0  0  0  0  0
   26.6500   27.6000   35.5500 N   0  0  0  0  0  0  0  0  0  0  0  0
   27.7900   28.2700   35.6200 N   0  0  0  0  0  0  0  0  0  0  0  0
   28.5400   28.3000   34.5100 C   0  0  0  0  0  0  0  0  0  0  0  0
   29.7700   28.9400   34.5600 C   0  0  0  0  0  0  0  0  0  0  0  0
   30.7000   28.8900   33.5000 C   0  0  0  0  0  0  0  0  0  0  0  0
   30.3700   28.1400   32.3700 C   0  0  0  0  0  0  0  0  0  0  0  0
   29.1200   27.5200   32.2800 C   0  0  0  0  0  0  0  0  0  0  0  0
   28.2100   27.6100   33.3300 C   0  0  0  0  0  0  0  0  0  0  0  0
   26.9700   26.9700   33.3100 C   0  0  0  0  0  0  0  0  0  0  0  0
   26.5300   26.2400   32.2200 N   0  0  0  0  0  0  0  0  0  0  0  0
   23.0435   25.4149   35.9497 C   0  0  0  0  0  0  0  0  0  0  0  0
   22.9143   24.2275   35.3002 N   0  0  0  0  0  0  0  0  0  0  0  0
   21.8775   23.3781   35.5071 C   0  0  0  0  0  0  0  0  0  0  0  0
   21.8141   22.1185   34.6869 C   0  0  0  0  0  0  0  0  0  0  0  0
   20.7969   21.1220   35.2412 C   0  0  0  0  0  0  0  0  0  0  0  0
   19.5327   21.8214   35.5260 N   0  0  0  0  0  0  0  0  0  0  0  0
   18.4760   20.8465   35.8404 C   0  0  0  0  0  0  0  0  0  0  0  0
   19.7099   22.7556   36.6560 C   0  0  0  0  0  0  0  0  0  0  0  0
   20.8617   23.7188   36.4210 C   0  0  0  0  0  0  0  0  0  0  0  0
   20.9881   24.9176   37.1659 C   0  0  0  0  0  0  0  0  0  0  0  0
   19.9393   25.2904   38.1952 C   0  0  0  0  0  0  0  0  0  0  0  0
   20.3925   26.4325   39.1000 C   0  0  0  0  0  0  0  0  0  0  0  0
   20.9255   27.5225   38.2703 N   0  0  0  0  0  0  0  0  0  0  0  0
   22.1989   27.1067   37.6520 C   0  0  0  0  0  0  0  0  0  0  0  0
   22.0652   25.7981   36.8953 C   0  0  0  0  0  0  0  0  0  0  0  0
   21.1315   28.7283   39.0871 C   0  0  0  0  0  0  0  0  0  0  0  0
  1  2  1  0
  2  3  2  0
  2  4  1  0
  4  5  2  0
  5  6  1  0
  6  7  2  0
  7  8  1  0
  8  9  2  0
  9 10  1  0
 10 11  2  0
 11 12  1  0
 12 13  2  0
 13 14  1  0
  1 15  1  0
 15 16  2  0
 16 17  1  0
 17 18  1  0
 18 19  1  0
 19 20  1  0
 20 21  1  0
 20 22  1  0
 22 23  1  0
 23 24  1  0
 24 25  1  0
 25 26  1  0
 26 27  1  0
 27 28  1  0
 28 29  1  0
 27 30  1  0
 13  4  1  0
 29 15  1  0
 12  7  1  0
 23 17  2  0
 29 24  2  0
M  END
>  <AAScore>  (1) 
1732.5804077510463

>  <RootName>  (1) 
./4ZLY/04_DeltaGEst/trajectory_04/rank_00/lead_0238

$$$$
