confid_3
     RDKit          3D

 29 32  0  0  0  0  0  0  0  0999 V2000
   25.3300   26.2600   34.7600 N   0  0  0  0  0  0  0  0  0  0  0  0
   26.1200   25.9200   33.6900 C   0  0  0  0  0  0  0  0  0  0  0  0
   25.6300   25.1100   32.9400 O   0  0  0  0  0  0  0  0  0  0  0  0
   27.5200   26.3800   33.4600 C   0  0  0  0  0  0  0  0  0  0  0  0
   28.1600   26.6300   34.6100 N   0  0  0  0  0  0  0  0  0  0  0  0
   29.4800   26.8500   34.5700 N   0  0  0  0  0  0  0  0  0  0  0  0
   30.1900   26.7800   33.4400 C   0  0  0  0  0  0  0  0  0  0  0  0
   31.5600   27.0500   33.5000 C   0  0  0  0  0  0  0  0  0  0  0  0
   32.2700   27.2400   32.3100 C   0  0  0  0  0  0  0  0  0  0  0  0
   31.6100   27.2500   31.0800 C   0  0  0  0  0  0  0  0  0  0  0  0
   30.2700   26.8700   31.0600 C   0  0  0  0  0  0  0  0  0  0  0  0
   29.5100   26.6900   32.2300 C   0  0  0  0  0  0  0  0  0  0  0  0
   28.1400   26.4100   32.2000 C   0  0  0  0  0  0  0  0  0  0  0  0
   27.4300   26.1300   31.0500 N   0  0  0  0  0  0  0  0  0  0  0  0
   27.0075   27.3266   30.2771 C   0  0  0  0  0  0  0  0  0  0  0  0
   25.5858   27.8223   30.6205 C   0  0  0  0  0  0  0  0  0  0  0  0
   24.8626   28.1614   29.3597 N   0  0  0  0  0  0  0  0  0  0  0  0
   23.6305   27.3724   29.0932 C   0  0  0  0  0  0  0  0  0  0  0  0
   23.8673   25.8972   29.2631 C   0  0  0  0  0  0  0  0  0  0  0  0
   23.4587   25.2071   30.3895 C   0  0  0  0  0  0  0  0  0  0  0  0
   24.4026   24.3149   30.7291 N   0  0  0  0  0  0  0  0  0  0  0  0
   25.3773   24.3844   29.8378 N   0  0  0  0  0  0  0  0  0  0  0  0
   25.0354   25.2651   28.8742 C   0  0  0  0  0  0  0  0  0  0  0  0
   25.7426   25.4626   27.5571 C   0  0  0  0  0  0  0  0  0  0  0  0
   24.9954   24.7224   26.4444 C   0  0  0  0  0  0  0  0  0  0  0  0
   25.6895   24.9042   25.0978 C   0  0  0  0  0  0  0  0  0  0  0  0
   26.7050   23.8319   30.1061 C   0  0  0  0  0  0  0  0  0  0  0  0
   27.8140   24.9050   30.2910 C   0  0  0  0  0  0  0  0  0  0  0  0
   24.5787   29.6008   29.2687 C   0  0  0  0  0  0  0  0  0  0  0  0
  1  2  1  0
  2  3  2  0
  2  4  1  0
  4  5  2  0
  5  6  1  0
  6  7  2  0
  7  8  1  0
  8  9  2  0
  9 10  1  0
 10 11  2  0
 11 12  1  0
 12 13  2  0
 13 14  1  0
 14 15  1  0
 15 16  1  0
 16 17  1  0
 17 18  1  0
 18 19  1  0
 19 20  1  0
 20 21  2  0
 21 22  1  0
 22 23  1  0
 23 24  1  0
 24 25  1  0
 25 26  1  0
 22 27  1  0
 27 28  1  0
 17 29  1  0
 13  4  1  0
 28 14  1  0
 12  7  1  0
 23 19  2  0
M  END
>  <AAScore>  (1) 
944.6842258851332

>  <RootName>  (1) 
./4ZLY/04_DeltaGEst/trajectory_03/rank_01/lead_0258

$$$$
