confid_2
     RDKit          3D

 27 30  0  0  0  0  0  0  0  0999 V2000
   24.5500   26.3900   36.2500 N   0  0  0  0  0  0  0  0  0  0  0  0
   25.6000   26.1300   35.4000 C   0  0  0  0  0  0  0  0  0  0  0  0
   25.4300   25.4300   34.4200 O   0  0  0  0  0  0  0  0  0  0  0  0
   26.9800   26.6300   35.7100 C   0  0  0  0  0  0  0  0  0  0  0  0
   27.3200   26.8200   36.9800 N   0  0  0  0  0  0  0  0  0  0  0  0
   28.4700   27.4000   37.3100 N   0  0  0  0  0  0  0  0  0  0  0  0
   29.4000   27.6300   36.3700 C   0  0  0  0  0  0  0  0  0  0  0  0
   30.6600   28.0500   36.8000 C   0  0  0  0  0  0  0  0  0  0  0  0
   31.5700   28.3600   35.7800 C   0  0  0  0  0  0  0  0  0  0  0  0
   31.3700   28.1000   34.4300 C   0  0  0  0  0  0  0  0  0  0  0  0
   30.1200   27.5900   34.0500 C   0  0  0  0  0  0  0  0  0  0  0  0
   29.1500   27.3400   35.0300 C   0  0  0  0  0  0  0  0  0  0  0  0
   27.8800   26.8900   34.6600 C   0  0  0  0  0  0  0  0  0  0  0  0
   27.4800   26.6100   33.3700 N   0  0  0  0  0  0  0  0  0  0  0  0
   31.0065   28.3140   38.2187 C   0  0  0  0  0  0  0  0  0  0  0  0
   32.1839   27.7646   38.7603 C   0  0  0  0  0  0  0  0  0  0  0  0
   32.5026   28.0316   40.0893 C   0  0  0  0  0  0  0  0  0  0  0  0
   33.6788   27.5243   40.8597 C   0  0  0  0  0  0  0  0  0  0  0  0
   33.3988   28.1412   42.1945 C   0  0  0  0  0  0  0  0  0  0  0  0
   34.1153   27.9620   43.2149 O   0  0  0  0  0  0  0  0  0  0  0  0
   32.2223   28.9489   42.1953 N   0  0  0  0  0  0  0  0  0  0  0  0
   31.6937   28.8269   40.8784 C   0  0  0  0  0  0  0  0  0  0  0  0
   30.5170   29.3984   40.3730 C   0  0  0  0  0  0  0  0  0  0  0  0
   29.7184   30.2007   41.2010 O   0  0  0  0  0  0  0  0  0  0  0  0
   28.5030   30.8194   40.7932 C   0  0  0  0  0  0  0  0  0  0  0  0
   30.1843   29.1372   39.0237 C   0  0  0  0  0  0  0  0  0  0  0  0
   31.5528   29.4888   43.3749 C   0  0  0  0  0  0  0  0  0  0  0  0
  1  2  1  0
  2  3  2  0
  2  4  1  0
  4  5  2  0
  5  6  1  0
  6  7  2  0
  7  8  1  0
  8  9  2  0
  9 10  1  0
 10 11  2  0
 11 12  1  0
 12 13  2  0
 13 14  1  0
  8 15  1  0
 15 16  2  0
 16 17  1  0
 17 18  1  0
 18 19  1  0
 19 20  2  0
 19 21  1  0
 21 22  1  0
 22 23  1  0
 23 24  1  0
 24 25  1  0
 23 26  2  0
 21 27  1  0
 13  4  1  0
 26 15  1  0
 12  7  1  0
 22 17  2  0
M  END
>  <AAScore>  (1) 
197.6576935872262

>  <RootName>  (1) 
./4ZLY/04_DeltaGEst/trajectory_01/rank_01/lead_0344

$$$$
