confid_18
     RDKit          3D

 28 31  0  0  0  0  0  0  0  0999 V2000
   24.5700   26.8800   35.5900 N   0  0  0  0  0  0  0  0  0  0  0  0
   25.5000   26.4000   34.6900 C   0  0  0  0  0  0  0  0  0  0  0  0
   25.1700   25.5200   33.9100 O   0  0  0  0  0  0  0  0  0  0  0  0
   26.8400   27.0200   34.7400 C   0  0  0  0  0  0  0  0  0  0  0  0
   27.3800   27.2800   35.9400 N   0  0  0  0  0  0  0  0  0  0  0  0
   28.6200   27.7400   36.0300 N   0  0  0  0  0  0  0  0  0  0  0  0
   29.3800   28.0000   34.9600 C   0  0  0  0  0  0  0  0  0  0  0  0
   30.6700   28.5000   35.1300 C   0  0  0  0  0  0  0  0  0  0  0  0
   31.5400   28.6100   34.0300 C   0  0  0  0  0  0  0  0  0  0  0  0
   31.0900   28.2200   32.7700 C   0  0  0  0  0  0  0  0  0  0  0  0
   29.8000   27.7000   32.6000 C   0  0  0  0  0  0  0  0  0  0  0  0
   28.9600   27.5500   33.7100 C   0  0  0  0  0  0  0  0  0  0  0  0
   27.6600   27.0300   33.5900 C   0  0  0  0  0  0  0  0  0  0  0  0
   27.1600   26.7400   32.3400 N   0  0  0  0  0  0  0  0  0  0  0  0
   23.2052   26.4335   35.6971 C   0  0  0  0  0  0  0  0  0  0  0  0
   22.3902   27.0006   36.6254 N   0  0  0  0  0  0  0  0  0  0  0  0
   21.0956   26.6126   36.7593 C   0  0  0  0  0  0  0  0  0  0  0  0
   20.5773   25.6052   35.9401 C   0  0  0  0  0  0  0  0  0  0  0  0
   19.1220   25.2167   36.0244 C   0  0  0  0  0  0  0  0  0  0  0  0
   18.8735   23.8905   35.4117 N   0  0  0  0  0  0  0  0  0  0  0  0
   17.4266   23.5686   35.4073 C   0  0  0  0  0  0  0  0  0  0  0  0
   16.9602   23.0298   36.7785 C   0  0  0  0  0  0  0  0  0  0  0  0
   17.7504   21.7744   37.1834 C   0  0  0  0  0  0  0  0  0  0  0  0
   15.4577   22.7200   36.7407 C   0  0  0  0  0  0  0  0  0  0  0  0
   19.4138   23.8631   34.0378 C   0  0  0  0  0  0  0  0  0  0  0  0
   20.9429   23.9381   34.0781 C   0  0  0  0  0  0  0  0  0  0  0  0
   21.4206   25.0481   34.9676 C   0  0  0  0  0  0  0  0  0  0  0  0
   22.7126   25.4618   34.8812 N   0  0  0  0  0  0  0  0  0  0  0  0
  1  2  1  0
  2  3  2  0
  2  4  1  0
  4  5  2  0
  5  6  1  0
  6  7  2  0
  7  8  1  0
  8  9  2  0
  9 10  1  0
 10 11  2  0
 11 12  1  0
 12 13  2  0
 13 14  1  0
  1 15  1  0
 15 16  2  0
 16 17  1  0
 17 18  2  0
 18 19  1  0
 19 20  1  0
 20 21  1  0
 21 22  1  0
 22 23  1  0
 22 24  1  0
 20 25  1  0
 25 26  1  0
 26 27  1  0
 27 28  2  0
 13  4  1  0
 28 15  1  0
 12  7  1  0
 27 18  1  0
M  END
>  <AAScore>  (1) 
13306.200955171578

>  <RootName>  (1) 
./4ZLY/04_DeltaGEst/trajectory_05/rank_00/lead_0287

$$$$
