confid_2
     RDKit          3D

 30 34  0  0  0  0  0  0  0  0999 V2000
   25.3300   26.2600   34.7600 N   0  0  0  0  0  0  0  0  0  0  0  0
   26.1200   25.9200   33.6900 C   0  0  0  0  0  0  0  0  0  0  0  0
   25.6300   25.1100   32.9400 O   0  0  0  0  0  0  0  0  0  0  0  0
   27.5200   26.3800   33.4600 C   0  0  0  0  0  0  0  0  0  0  0  0
   28.1600   26.6300   34.6100 N   0  0  0  0  0  0  0  0  0  0  0  0
   29.4800   26.8500   34.5700 N   0  0  0  0  0  0  0  0  0  0  0  0
   30.1900   26.7800   33.4400 C   0  0  0  0  0  0  0  0  0  0  0  0
   31.5600   27.0500   33.5000 C   0  0  0  0  0  0  0  0  0  0  0  0
   32.2700   27.2400   32.3100 C   0  0  0  0  0  0  0  0  0  0  0  0
   31.6100   27.2500   31.0800 C   0  0  0  0  0  0  0  0  0  0  0  0
   30.2700   26.8700   31.0600 C   0  0  0  0  0  0  0  0  0  0  0  0
   29.5100   26.6900   32.2300 C   0  0  0  0  0  0  0  0  0  0  0  0
   28.1400   26.4100   32.2000 C   0  0  0  0  0  0  0  0  0  0  0  0
   27.4300   26.1300   31.0500 N   0  0  0  0  0  0  0  0  0  0  0  0
   23.9049   26.0494   34.8494 C   0  0  0  0  0  0  0  0  0  0  0  0
   23.2275   25.8744   33.7469 N   0  0  0  0  0  0  0  0  0  0  0  0
   21.8390   25.6473   33.4778 C   0  0  0  0  0  0  0  0  0  0  0  0
   20.8627   26.2888   34.1001 C   0  0  0  0  0  0  0  0  0  0  0  0
   19.3942   26.5290   33.9054 C   0  0  0  0  0  0  0  0  0  0  0  0
   19.2624   27.3817   34.9963 O   0  0  0  0  0  0  0  0  0  0  0  0
   20.6131   27.1831   35.2727 C   0  0  1  0  0  0  0  0  0  0  0  0
   20.7747   26.4270   36.5875 C   0  0  0  0  0  0  0  0  0  0  0  0
   22.1960   26.0698   36.8728 C   0  0  0  0  0  0  0  0  0  0  0  0
   23.3456   25.9300   36.2180 C   0  0  0  0  0  0  0  0  0  0  0  0
   23.9956   25.6259   37.4553 N   0  0  0  0  0  0  0  0  0  0  0  0
   22.8785   25.6925   38.1008 C   0  0  0  0  0  0  0  0  0  0  0  0
   22.4963   25.4978   39.4700 N   0  0  0  0  0  0  0  0  0  0  0  0
   23.5189   25.1569   40.4641 C   0  0  0  0  0  0  0  0  0  0  0  0
   23.8946   23.6816   40.3637 C   0  0  0  0  0  0  0  0  0  0  0  0
   21.0965   25.6569   39.8632 C   0  0  0  0  0  0  0  0  0  0  0  0
  1  2  1  0
  2  3  2  0
  2  4  1  0
  4  5  2  0
  5  6  1  0
  6  7  2  0
  7  8  1  0
  8  9  2  0
  9 10  1  0
 10 11  2  0
 11 12  1  0
 12 13  2  0
 13 14  1  0
  1 15  1  0
 15 16  2  0
 16 17  1  0
 17 18  2  0
 18 19  1  0
 19 20  1  0
 20 21  1  0
 21 22  1  1
 22 23  1  0
 23 24  2  0
 24 25  1  0
 25 26  2  0
 26 27  1  0
 27 28  1  0
 28 29  1  0
 27 30  1  0
 13  4  1  0
 24 15  1  0
 12  7  1  0
 21 18  1  0
 26 23  1  0
M  END
>  <AAScore>  (1) 
2016.3323047297545

>  <RootName>  (1) 
./4ZLY/04_DeltaGEst/trajectory_03/rank_00/lead_0042

$$$$
