confid_16
     RDKit          3D

 27 30  0  0  0  0  0  0  0  0999 V2000
   25.3300   26.2600   34.7600 N   0  0  0  0  0  0  0  0  0  0  0  0
   26.1200   25.9200   33.6900 C   0  0  0  0  0  0  0  0  0  0  0  0
   25.6300   25.1100   32.9400 O   0  0  0  0  0  0  0  0  0  0  0  0
   27.5200   26.3800   33.4600 C   0  0  0  0  0  0  0  0  0  0  0  0
   28.1600   26.6300   34.6100 N   0  0  0  0  0  0  0  0  0  0  0  0
   29.4800   26.8500   34.5700 N   0  0  0  0  0  0  0  0  0  0  0  0
   30.1900   26.7800   33.4400 C   0  0  0  0  0  0  0  0  0  0  0  0
   31.5600   27.0500   33.5000 C   0  0  0  0  0  0  0  0  0  0  0  0
   32.2700   27.2400   32.3100 C   0  0  0  0  0  0  0  0  0  0  0  0
   31.6100   27.2500   31.0800 C   0  0  0  0  0  0  0  0  0  0  0  0
   30.2700   26.8700   31.0600 C   0  0  0  0  0  0  0  0  0  0  0  0
   29.5100   26.6900   32.2300 C   0  0  0  0  0  0  0  0  0  0  0  0
   28.1400   26.4100   32.2000 C   0  0  0  0  0  0  0  0  0  0  0  0
   27.4300   26.1300   31.0500 N   0  0  0  0  0  0  0  0  0  0  0  0
   26.4757   27.1112   30.5206 C   0  0  0  0  0  0  0  0  0  0  0  0
   26.5879   27.2393   28.9846 C   0  0  0  0  0  0  0  0  0  0  0  0
   27.2976   26.1009   28.3474 N   0  0  0  0  0  0  0  0  0  0  0  0
   27.0085   26.0289   26.9009 C   0  0  0  0  0  0  0  0  0  0  0  0
   27.6273   27.1889   26.1813 C   0  0  0  0  0  0  0  0  0  0  0  0
   28.9679   27.3390   25.8988 C   0  0  0  0  0  0  0  0  0  0  0  0
   29.1188   28.5247   25.2881 N   0  0  0  0  0  0  0  0  0  0  0  0
   30.3534   29.0701   24.7292 C   0  0  0  0  0  0  0  0  0  0  0  0
   30.5807   28.5293   23.3216 C   0  0  0  0  0  0  0  0  0  0  0  0
   27.8842   29.0605   25.2045 C   0  0  0  0  0  0  0  0  0  0  0  0
   26.9389   28.2686   25.7543 N   0  0  0  0  0  0  0  0  0  0  0  0
   26.9580   24.8294   29.0096 C   0  0  0  0  0  0  0  0  0  0  0  0
   27.5881   24.8214   30.4019 C   0  0  0  0  0  0  0  0  0  0  0  0
  1  2  1  0
  2  3  2  0
  2  4  1  0
  4  5  2  0
  5  6  1  0
  6  7  2  0
  7  8  1  0
  8  9  2  0
  9 10  1  0
 10 11  2  0
 11 12  1  0
 12 13  2  0
 13 14  1  0
 14 15  1  0
 15 16  1  0
 16 17  1  0
 17 18  1  0
 18 19  1  0
 19 20  2  0
 20 21  1  0
 21 22  1  0
 22 23  1  0
 21 24  1  0
 24 25  2  0
 17 26  1  0
 26 27  1  0
 13  4  1  0
 27 14  1  0
 12  7  1  0
 25 19  1  0
M  END
>  <AAScore>  (1) 
-1.9004289082377568

>  <RootName>  (1) 
./4ZLY/04_DeltaGEst/trajectory_03/rank_01/lead_0451

$$$$
