confid_18
     RDKit          3D

 29 32  0  0  0  0  0  0  0  0999 V2000
   25.3300   26.2600   34.7600 N   0  0  0  0  0  0  0  0  0  0  0  0
   26.1200   25.9200   33.6900 C   0  0  0  0  0  0  0  0  0  0  0  0
   25.6300   25.1100   32.9400 O   0  0  0  0  0  0  0  0  0  0  0  0
   27.5200   26.3800   33.4600 C   0  0  0  0  0  0  0  0  0  0  0  0
   28.1600   26.6300   34.6100 N   0  0  0  0  0  0  0  0  0  0  0  0
   29.4800   26.8500   34.5700 N   0  0  0  0  0  0  0  0  0  0  0  0
   30.1900   26.7800   33.4400 C   0  0  0  0  0  0  0  0  0  0  0  0
   31.5600   27.0500   33.5000 C   0  0  0  0  0  0  0  0  0  0  0  0
   32.2700   27.2400   32.3100 C   0  0  0  0  0  0  0  0  0  0  0  0
   31.6100   27.2500   31.0800 C   0  0  0  0  0  0  0  0  0  0  0  0
   30.2700   26.8700   31.0600 C   0  0  0  0  0  0  0  0  0  0  0  0
   29.5100   26.6900   32.2300 C   0  0  0  0  0  0  0  0  0  0  0  0
   28.1400   26.4100   32.2000 C   0  0  0  0  0  0  0  0  0  0  0  0
   27.4300   26.1300   31.0500 N   0  0  0  0  0  0  0  0  0  0  0  0
   26.5226   27.1417   30.4968 C   0  0  0  0  0  0  0  0  0  0  0  0
   26.1450   26.7964   29.0561 C   0  0  0  0  0  0  0  0  0  0  0  0
   27.3488   26.3179   28.3540 N   0  0  0  0  0  0  0  0  0  0  0  0
   27.1250   26.2892   26.8947 C   0  0  0  0  0  0  0  0  0  0  0  0
   28.4207   26.0956   26.1670 C   0  0  0  0  0  0  0  0  0  0  0  0
   28.8577   24.9228   25.5914 C   0  0  0  0  0  0  0  0  0  0  0  0
   30.0894   25.1454   25.1037 N   0  0  0  0  0  0  0  0  0  0  0  0
   30.9884   24.1583   24.5112 C   0  0  0  0  0  0  0  0  0  0  0  0
   31.8584   24.7762   23.6303 F   0  0  0  0  0  0  0  0  0  0  0  0
   30.2599   23.2048   23.8221 F   0  0  0  0  0  0  0  0  0  0  0  0
   31.7161   23.5399   25.5108 F   0  0  0  0  0  0  0  0  0  0  0  0
   30.3855   26.4221   25.4220 C   0  0  0  0  0  0  0  0  0  0  0  0
   29.3793   27.0404   26.0761 N   0  0  0  0  0  0  0  0  0  0  0  0
   27.7700   24.9875   28.8628 C   0  0  0  0  0  0  0  0  0  0  0  0
   27.5836   24.8287   30.3880 C   0  0  0  0  0  0  0  0  0  0  0  0
  1  2  1  0
  2  3  2  0
  2  4  1  0
  4  5  2  0
  5  6  1  0
  6  7  2  0
  7  8  1  0
  8  9  2  0
  9 10  1  0
 10 11  2  0
 11 12  1  0
 12 13  2  0
 13 14  1  0
 14 15  1  0
 15 16  1  0
 16 17  1  0
 17 18  1  0
 18 19  1  0
 19 20  2  0
 20 21  1  0
 21 22  1  0
 22 23  1  0
 22 24  1  0
 22 25  1  0
 21 26  1  0
 26 27  2  0
 17 28  1  0
 28 29  1  0
 13  4  1  0
 29 14  1  0
 12  7  1  0
 27 19  1  0
M  END
>  <AAScore>  (1) 
0.8270498686433602

>  <RootName>  (1) 
./4ZLY/04_DeltaGEst/trajectory_03/rank_01/lead_0286

$$$$
