confid_2
     RDKit          3D

 27 30  0  0  0  0  0  0  0  0999 V2000
   24.4800   26.1000   36.1300 N   0  0  0  0  0  0  0  0  0  0  0  0
   25.2500   26.2500   34.9900 C   0  0  0  0  0  0  0  0  0  0  0  0
   24.7400   25.7600   33.9900 O   0  0  0  0  0  0  0  0  0  0  0  0
   26.5900   26.8900   34.9600 C   0  0  0  0  0  0  0  0  0  0  0  0
   27.0600   27.2400   36.1600 N   0  0  0  0  0  0  0  0  0  0  0  0
   28.3000   27.7100   36.2400 N   0  0  0  0  0  0  0  0  0  0  0  0
   29.0500   27.9600   35.1500 C   0  0  0  0  0  0  0  0  0  0  0  0
   30.3400   28.4900   35.2600 C   0  0  0  0  0  0  0  0  0  0  0  0
   31.1100   28.8200   34.1400 C   0  0  0  0  0  0  0  0  0  0  0  0
   30.5200   28.6700   32.8800 C   0  0  0  0  0  0  0  0  0  0  0  0
   29.2900   28.0200   32.7700 C   0  0  0  0  0  0  0  0  0  0  0  0
   28.5200   27.7100   33.8900 C   0  0  0  0  0  0  0  0  0  0  0  0
   27.2700   27.0800   33.7600 C   0  0  0  0  0  0  0  0  0  0  0  0
   26.7500   26.8800   32.4900 N   0  0  0  0  0  0  0  0  0  0  0  0
   23.5336   25.0409   36.3635 C   0  0  0  0  0  0  0  0  0  0  0  0
   22.4795   25.2694   37.1902 N   0  0  0  0  0  0  0  0  0  0  0  0
   21.5606   24.3104   37.4750 C   0  0  0  0  0  0  0  0  0  0  0  0
   21.6710   23.0269   36.9179 C   0  0  0  0  0  0  0  0  0  0  0  0
   20.6099   21.9952   37.2580 C   0  0  0  0  0  0  0  0  0  0  0  0
   20.4403   20.9614   36.2156 N   0  0  0  0  0  0  0  0  0  0  0  0
   19.4066   19.9943   36.6163 C   0  0  0  0  0  0  0  0  0  0  0  0
   20.1606   21.5338   34.8766 C   0  0  0  0  0  0  0  0  0  0  0  0
   21.2608   21.1490   33.9303 C   0  0  0  0  0  0  0  0  0  0  0  0
   22.5533   21.1151   34.2804 C   0  0  0  0  0  0  0  0  0  0  0  0
   23.0035   21.4800   35.5549 O   0  0  0  0  0  0  0  0  0  0  0  0
   22.7834   22.7505   36.0929 C   0  0  0  0  0  0  0  0  0  0  0  0
   23.7106   23.7603   35.8176 C   0  0  0  0  0  0  0  0  0  0  0  0
  1  2  1  0
  2  3  2  0
  2  4  1  0
  4  5  2  0
  5  6  1  0
  6  7  2  0
  7  8  1  0
  8  9  2  0
  9 10  1  0
 10 11  2  0
 11 12  1  0
 12 13  2  0
 13 14  1  0
  1 15  1  0
 15 16  2  0
 16 17  1  0
 17 18  2  0
 18 19  1  0
 19 20  1  0
 20 21  1  0
 20 22  1  0
 22 23  1  0
 23 24  2  0
 24 25  1  0
 25 26  1  0
 26 27  2  0
 13  4  1  0
 27 15  1  0
 12  7  1  0
 26 18  1  0
M  END
>  <AAScore>  (1) 
628.6588995631574

>  <RootName>  (1) 
./4ZLY/04_DeltaGEst/trajectory_00/rank_00/lead_0032

$$$$
