confid_6
     RDKit          3D

 28 31  0  0  0  0  0  0  0  0999 V2000
   24.4800   26.1000   36.1300 N   0  0  0  0  0  0  0  0  0  0  0  0
   25.2500   26.2500   34.9900 C   0  0  0  0  0  0  0  0  0  0  0  0
   24.7400   25.7600   33.9900 O   0  0  0  0  0  0  0  0  0  0  0  0
   26.5900   26.8900   34.9600 C   0  0  0  0  0  0  0  0  0  0  0  0
   27.0600   27.2400   36.1600 N   0  0  0  0  0  0  0  0  0  0  0  0
   28.3000   27.7100   36.2400 N   0  0  0  0  0  0  0  0  0  0  0  0
   29.0500   27.9600   35.1500 C   0  0  0  0  0  0  0  0  0  0  0  0
   30.3400   28.4900   35.2600 C   0  0  0  0  0  0  0  0  0  0  0  0
   31.1100   28.8200   34.1400 C   0  0  0  0  0  0  0  0  0  0  0  0
   30.5200   28.6700   32.8800 C   0  0  0  0  0  0  0  0  0  0  0  0
   29.2900   28.0200   32.7700 C   0  0  0  0  0  0  0  0  0  0  0  0
   28.5200   27.7100   33.8900 C   0  0  0  0  0  0  0  0  0  0  0  0
   27.2700   27.0800   33.7600 C   0  0  0  0  0  0  0  0  0  0  0  0
   26.7500   26.8800   32.4900 N   0  0  0  0  0  0  0  0  0  0  0  0
   23.0981   25.6844   36.1658 C   0  0  0  0  0  0  0  0  0  0  0  0
   22.3623   25.3879   35.0758 N   0  0  0  0  0  0  0  0  0  0  0  0
   21.1614   25.0283   35.5768 C   0  0  0  0  0  0  0  0  0  0  0  0
   20.0170   24.6176   34.7006 C   0  0  0  0  0  0  0  0  0  0  0  0
   19.5982   23.1574   34.9538 C   0  0  0  0  0  0  0  0  0  0  0  0
   19.6638   22.7765   36.3832 N   0  0  0  0  0  0  0  0  0  0  0  0
   18.9727   23.7616   37.2462 C   0  0  0  0  0  0  0  0  0  0  0  0
   19.9858   24.7619   37.8309 C   0  0  0  0  0  0  0  0  0  0  0  0
   21.1149   25.0696   36.9330 N   0  0  0  0  0  0  0  0  0  0  0  0
   22.3323   25.5219   37.3064 C   0  0  0  0  0  0  0  0  0  0  0  0
   22.7834   25.7334   38.7239 C   0  0  0  0  0  0  0  0  0  0  0  0
   19.1558   21.4019   36.5814 C   0  0  0  0  0  0  0  0  0  0  0  0
   19.7980   20.7529   37.8166 C   0  0  0  0  0  0  0  0  0  0  0  0
   21.3182   20.6625   37.6897 C   0  0  0  0  0  0  0  0  0  0  0  0
  1  2  1  0
  2  3  2  0
  2  4  1  0
  4  5  2  0
  5  6  1  0
  6  7  2  0
  7  8  1  0
  8  9  2  0
  9 10  1  0
 10 11  2  0
 11 12  1  0
 12 13  2  0
 13 14  1  0
  1 15  1  0
 15 16  1  0
 16 17  2  0
 17 18  1  0
 18 19  1  0
 19 20  1  0
 20 21  1  0
 21 22  1  0
 22 23  1  0
 23 24  1  0
 24 25  1  0
 20 26  1  0
 26 27  1  0
 27 28  1  0
 13  4  1  0
 24 15  2  0
 12  7  1  0
 23 17  1  0
M  END
>  <AAScore>  (1) 
5282.857418630613

>  <RootName>  (1) 
./4ZLY/04_DeltaGEst/trajectory_00/rank_01/lead_0151

$$$$
