confid_4
     RDKit          3D

 29 32  0  0  0  0  0  0  0  0999 V2000
   24.5500   26.3900   36.2500 N   0  0  0  0  0  0  0  0  0  0  0  0
   25.6000   26.1300   35.4000 C   0  0  0  0  0  0  0  0  0  0  0  0
   25.4300   25.4300   34.4200 O   0  0  0  0  0  0  0  0  0  0  0  0
   26.9800   26.6300   35.7100 C   0  0  0  0  0  0  0  0  0  0  0  0
   27.3200   26.8200   36.9800 N   0  0  0  0  0  0  0  0  0  0  0  0
   28.4700   27.4000   37.3100 N   0  0  0  0  0  0  0  0  0  0  0  0
   29.4000   27.6300   36.3700 C   0  0  0  0  0  0  0  0  0  0  0  0
   30.6600   28.0500   36.8000 C   0  0  0  0  0  0  0  0  0  0  0  0
   31.5700   28.3600   35.7800 C   0  0  0  0  0  0  0  0  0  0  0  0
   31.3700   28.1000   34.4300 C   0  0  0  0  0  0  0  0  0  0  0  0
   30.1200   27.5900   34.0500 C   0  0  0  0  0  0  0  0  0  0  0  0
   29.1500   27.3400   35.0300 C   0  0  0  0  0  0  0  0  0  0  0  0
   27.8800   26.8900   34.6600 C   0  0  0  0  0  0  0  0  0  0  0  0
   27.4800   26.6100   33.3700 N   0  0  0  0  0  0  0  0  0  0  0  0
   31.0216   28.2878   38.2198 C   0  0  0  0  0  0  0  0  0  0  0  0
   30.6129   27.5198   39.3229 C   0  0  0  0  0  0  0  0  0  0  0  0
   31.1373   28.0249   40.5101 C   0  0  0  0  0  0  0  0  0  0  0  0
   30.7909   27.8090   41.9379 C   0  0  0  0  0  0  0  0  0  0  0  0
   31.4774   29.0200   42.6399 C   0  0  0  0  0  0  0  0  0  0  0  0
   32.1577   29.7821   41.5839 N   0  0  0  0  0  0  0  0  0  0  0  0
   32.8905   31.0004   41.7905 C   0  0  0  0  0  0  0  0  0  0  0  0
   32.7462   31.6273   42.8757 O   0  0  0  0  0  0  0  0  0  0  0  0
   33.7939   31.5572   40.7202 C   0  0  0  0  0  0  0  0  0  0  0  0
   34.9246   32.4230   41.2980 C   0  0  0  0  0  0  0  0  0  0  0  0
   35.9019   32.7799   40.2460 N   0  0  0  0  0  0  0  0  0  0  0  0
   35.4245   33.9192   39.4418 C   0  0  0  0  0  0  0  0  0  0  0  0
   37.1985   33.1222   40.8537 C   0  0  0  0  0  0  0  0  0  0  0  0
   31.9188   29.1041   40.3670 C   0  0  0  0  0  0  0  0  0  0  0  0
   31.9818   29.5901   38.7626 S   0  0  0  0  0  0  0  0  0  0  0  0
  1  2  1  0
  2  3  2  0
  2  4  1  0
  4  5  2  0
  5  6  1  0
  6  7  2  0
  7  8  1  0
  8  9  2  0
  9 10  1  0
 10 11  2  0
 11 12  1  0
 12 13  2  0
 13 14  1  0
  8 15  1  0
 15 16  2  0
 16 17  1  0
 17 18  1  0
 18 19  1  0
 19 20  1  0
 20 21  1  0
 21 22  2  0
 21 23  1  0
 23 24  1  0
 24 25  1  0
 25 26  1  0
 25 27  1  0
 20 28  1  0
 28 29  1  0
 13  4  1  0
 29 15  1  0
 12  7  1  0
 28 17  2  0
M  END
>  <AAScore>  (1) 
146.02964128957495

>  <RootName>  (1) 
./4ZLY/04_DeltaGEst/trajectory_01/rank_01/lead_0166

$$$$
