confid_15
     RDKit          3D

 27 30  0  0  0  0  0  0  0  0999 V2000
   24.6900   26.1200   35.5300 N   0  0  0  0  0  0  0  0  0  0  0  0
   25.6600   25.6700   34.6600 C   0  0  0  0  0  0  0  0  0  0  0  0
   25.2400   25.0100   33.7200 O   0  0  0  0  0  0  0  0  0  0  0  0
   27.0300   26.2200   34.8800 C   0  0  0  0  0  0  0  0  0  0  0  0
   27.3500   26.7300   36.0700 N   0  0  0  0  0  0  0  0  0  0  0  0
   28.5700   27.1800   36.3300 N   0  0  0  0  0  0  0  0  0  0  0  0
   29.5300   27.1100   35.3900 C   0  0  0  0  0  0  0  0  0  0  0  0
   30.8300   27.5700   35.6500 C   0  0  0  0  0  0  0  0  0  0  0  0
   31.8500   27.5400   34.6900 C   0  0  0  0  0  0  0  0  0  0  0  0
   31.5100   27.1200   33.4000 C   0  0  0  0  0  0  0  0  0  0  0  0
   30.2200   26.6300   33.1100 C   0  0  0  0  0  0  0  0  0  0  0  0
   29.2400   26.6600   34.1000 C   0  0  0  0  0  0  0  0  0  0  0  0
   27.9300   26.2600   33.8100 C   0  0  0  0  0  0  0  0  0  0  0  0
   27.5200   25.7100   32.6100 N   0  0  0  0  0  0  0  0  0  0  0  0
   23.3156   26.3546   35.1754 C   0  0  0  0  0  0  0  0  0  0  0  0
   22.9222   26.3813   33.8790 N   0  0  0  0  0  0  0  0  0  0  0  0
   21.6307   26.6131   33.5405 C   0  0  0  0  0  0  0  0  0  0  0  0
   20.6418   26.8059   34.5284 C   0  0  0  0  0  0  0  0  0  0  0  0
   19.1740   26.9813   34.0813 C   0  0  2  0  0  0  0  0  0  0  0  0
   18.1080   26.9518   35.2103 C   0  0  0  0  0  0  0  0  0  0  0  0
   18.3768   25.8608   36.2654 C   0  0  0  0  0  0  0  0  0  0  0  0
   19.2143   26.3243   37.3963 N   0  0  0  0  0  0  0  0  0  0  0  0
   18.3787   26.8505   38.4891 C   0  0  0  0  0  0  0  0  0  0  0  0
   20.2441   27.3187   37.0283 C   0  0  0  0  0  0  0  0  0  0  0  0
   21.1025   26.8728   35.8747 C   0  0  0  0  0  0  0  0  0  0  0  0
   22.4133   26.6297   36.1473 N   0  0  0  0  0  0  0  0  0  0  0  0
   18.7868   25.9313   33.0118 C   0  0  0  0  0  0  0  0  0  0  0  0
  1  2  1  0
  2  3  2  0
  2  4  1  0
  4  5  2  0
  5  6  1  0
  6  7  2  0
  7  8  1  0
  8  9  2  0
  9 10  1  0
 10 11  2  0
 11 12  1  0
 12 13  2  0
 13 14  1  0
  1 15  1  0
 15 16  2  0
 16 17  1  0
 17 18  2  0
 18 19  1  0
 19 20  1  0
 20 21  1  0
 21 22  1  0
 22 23  1  0
 22 24  1  0
 24 25  1  0
 25 26  2  0
 19 27  1  6
 13  4  1  0
 26 15  1  0
 12  7  1  0
 25 18  1  0
M  END
>  <AAScore>  (1) 
2525.5017337126565

>  <RootName>  (1) 
./4ZLY/04_DeltaGEst/trajectory_02/rank_00/lead_0032

$$$$
