confid_4
     RDKit          3D

 29 32  0  0  0  0  0  0  0  0999 V2000
   24.5500   26.3900   36.2500 N   0  0  0  0  0  0  0  0  0  0  0  0
   25.6000   26.1300   35.4000 C   0  0  0  0  0  0  0  0  0  0  0  0
   25.4300   25.4300   34.4200 O   0  0  0  0  0  0  0  0  0  0  0  0
   26.9800   26.6300   35.7100 C   0  0  0  0  0  0  0  0  0  0  0  0
   27.3200   26.8200   36.9800 N   0  0  0  0  0  0  0  0  0  0  0  0
   28.4700   27.4000   37.3100 N   0  0  0  0  0  0  0  0  0  0  0  0
   29.4000   27.6300   36.3700 C   0  0  0  0  0  0  0  0  0  0  0  0
   30.6600   28.0500   36.8000 C   0  0  0  0  0  0  0  0  0  0  0  0
   31.5700   28.3600   35.7800 C   0  0  0  0  0  0  0  0  0  0  0  0
   31.3700   28.1000   34.4300 C   0  0  0  0  0  0  0  0  0  0  0  0
   30.1200   27.5900   34.0500 C   0  0  0  0  0  0  0  0  0  0  0  0
   29.1500   27.3400   35.0300 C   0  0  0  0  0  0  0  0  0  0  0  0
   27.8800   26.8900   34.6600 C   0  0  0  0  0  0  0  0  0  0  0  0
   27.4800   26.6100   33.3700 N   0  0  0  0  0  0  0  0  0  0  0  0
   30.9718   28.2885   38.1819 N   0  0  0  0  0  0  0  0  0  0  0  0
   30.3019   29.3670   38.9195 C   0  0  0  0  0  0  0  0  0  0  0  0
   29.9480   28.9247   40.3567 C   0  0  0  0  0  0  0  0  0  0  0  0
   30.6157   27.6608   40.7347 N   0  0  0  0  0  0  0  0  0  0  0  0
   30.4468   27.3436   42.1700 C   0  0  0  0  0  0  0  0  0  0  0  0
   29.8498   25.9397   42.3307 C   0  0  0  0  0  0  0  0  0  0  0  0
   30.7350   24.8766   41.7145 C   0  0  0  0  0  0  0  0  0  0  0  0
   30.4963   24.3376   40.4213 C   0  0  0  0  0  0  0  0  0  0  0  0
   29.2886   24.7228   39.6061 C   0  0  0  0  0  0  0  0  0  0  0  0
   31.3914   23.3878   39.8974 C   0  0  0  0  0  0  0  0  0  0  0  0
   32.5109   22.9862   40.6273 C   0  0  0  0  0  0  0  0  0  0  0  0
   32.7499   23.5207   41.8919 C   0  0  0  0  0  0  0  0  0  0  0  0
   31.8702   24.4592   42.4323 C   0  0  0  0  0  0  0  0  0  0  0  0
   32.0302   27.6698   40.3209 C   0  0  0  0  0  0  0  0  0  0  0  0
   32.0955   27.5715   38.7949 C   0  0  0  0  0  0  0  0  0  0  0  0
  1  2  1  0
  2  3  2  0
  2  4  1  0
  4  5  2  0
  5  6  1  0
  6  7  2  0
  7  8  1  0
  8  9  2  0
  9 10  1  0
 10 11  2  0
 11 12  1  0
 12 13  2  0
 13 14  1  0
  8 15  1  0
 15 16  1  0
 16 17  1  0
 17 18  1  0
 18 19  1  0
 19 20  1  0
 20 21  1  0
 21 22  2  0
 22 23  1  0
 22 24  1  0
 24 25  2  0
 25 26  1  0
 26 27  2  0
 18 28  1  0
 28 29  1  0
 13  4  1  0
 29 15  1  0
 12  7  1  0
 27 21  1  0
M  END
>  <AAScore>  (1) 
1697.7891958749158

>  <RootName>  (1) 
./4ZLY/04_DeltaGEst/trajectory_01/rank_01/lead_0160

$$$$
