confid_16
     RDKit          3D

 27 29  0  0  0  0  0  0  0  0999 V2000
   24.5700   26.8800   35.5900 N   0  0  0  0  0  0  0  0  0  0  0  0
   25.5000   26.4000   34.6900 C   0  0  0  0  0  0  0  0  0  0  0  0
   25.1700   25.5200   33.9100 O   0  0  0  0  0  0  0  0  0  0  0  0
   26.8400   27.0200   34.7400 C   0  0  0  0  0  0  0  0  0  0  0  0
   27.3800   27.2800   35.9400 N   0  0  0  0  0  0  0  0  0  0  0  0
   28.6200   27.7400   36.0300 N   0  0  0  0  0  0  0  0  0  0  0  0
   29.3800   28.0000   34.9600 C   0  0  0  0  0  0  0  0  0  0  0  0
   30.6700   28.5000   35.1300 C   0  0  0  0  0  0  0  0  0  0  0  0
   31.5400   28.6100   34.0300 C   0  0  0  0  0  0  0  0  0  0  0  0
   31.0900   28.2200   32.7700 C   0  0  0  0  0  0  0  0  0  0  0  0
   29.8000   27.7000   32.6000 C   0  0  0  0  0  0  0  0  0  0  0  0
   28.9600   27.5500   33.7100 C   0  0  0  0  0  0  0  0  0  0  0  0
   27.6600   27.0300   33.5900 C   0  0  0  0  0  0  0  0  0  0  0  0
   27.1600   26.7400   32.3400 N   0  0  0  0  0  0  0  0  0  0  0  0
   33.1641   29.2739   34.2376 S   0  0  0  0  0  6  0  0  0  0  0  0
   34.1159   28.5382   33.3356 O   0  0  0  0  0  0  0  0  0  0  0  0
   33.6090   29.0574   35.6573 O   0  0  0  0  0  0  0  0  0  0  0  0
   33.2240   30.9873   33.8779 N   0  0  0  0  0  0  0  0  0  0  0  0
   32.2796   31.7508   34.7122 C   0  0  0  0  0  0  0  0  0  0  0  0
   31.3852   32.5798   33.7797 C   0  0  2  0  0  0  0  0  0  0  0  0
   29.9252   32.8814   34.2978 C   0  0  0  0  0  0  0  0  0  0  0  0
   29.1201   31.5906   34.6082 C   0  0  0  0  0  0  0  0  0  0  0  0
   29.1719   33.6788   33.2044 C   0  0  0  0  0  0  0  0  0  0  0  0
   30.0498   33.7524   35.5912 C   0  0  0  0  0  0  0  0  0  0  0  0
   28.7278   34.1956   36.2308 C   0  0  0  0  0  0  0  0  0  0  0  0
   31.4991   31.8683   32.4386 C   0  0  0  0  0  0  0  0  0  0  0  0
   32.8840   31.2535   32.4740 C   0  0  0  0  0  0  0  0  0  0  0  0
  1  2  1  0
  2  3  2  0
  2  4  1  0
  4  5  2  0
  5  6  1  0
  6  7  2  0
  7  8  1  0
  8  9  2  0
  9 10  1  0
 10 11  2  0
 11 12  1  0
 12 13  2  0
 13 14  1  0
  9 15  1  0
 15 16  2  0
 15 17  2  0
 15 18  1  0
 18 19  1  0
 19 20  1  0
 20 21  1  1
 21 22  1  0
 21 23  1  0
 21 24  1  0
 24 25  1  0
 20 26  1  0
 26 27  1  0
 13  4  1  0
 27 18  1  0
 12  7  1  0
M  END
>  <AAScore>  (1) 
1964.495076884228

>  <RootName>  (1) 
./4ZLY/04_DeltaGEst/trajectory_05/rank_01/lead_0439

$$$$
