confid_11
     RDKit          3D

 27 30  0  0  0  0  0  0  0  0999 V2000
   24.6900   26.1200   35.5300 N   0  0  0  0  0  0  0  0  0  0  0  0
   25.6600   25.6700   34.6600 C   0  0  0  0  0  0  0  0  0  0  0  0
   25.2400   25.0100   33.7200 O   0  0  0  0  0  0  0  0  0  0  0  0
   27.0300   26.2200   34.8800 C   0  0  0  0  0  0  0  0  0  0  0  0
   27.3500   26.7300   36.0700 N   0  0  0  0  0  0  0  0  0  0  0  0
   28.5700   27.1800   36.3300 N   0  0  0  0  0  0  0  0  0  0  0  0
   29.5300   27.1100   35.3900 C   0  0  0  0  0  0  0  0  0  0  0  0
   30.8300   27.5700   35.6500 C   0  0  0  0  0  0  0  0  0  0  0  0
   31.8500   27.5400   34.6900 C   0  0  0  0  0  0  0  0  0  0  0  0
   31.5100   27.1200   33.4000 C   0  0  0  0  0  0  0  0  0  0  0  0
   30.2200   26.6300   33.1100 C   0  0  0  0  0  0  0  0  0  0  0  0
   29.2400   26.6600   34.1000 C   0  0  0  0  0  0  0  0  0  0  0  0
   27.9300   26.2600   33.8100 C   0  0  0  0  0  0  0  0  0  0  0  0
   27.5200   25.7100   32.6100 N   0  0  0  0  0  0  0  0  0  0  0  0
   23.3205   26.3741   35.1701 C   0  0  0  0  0  0  0  0  0  0  0  0
   22.4116   26.6410   36.1455 N   0  0  0  0  0  0  0  0  0  0  0  0
   21.1134   26.9017   35.8457 C   0  0  0  0  0  0  0  0  0  0  0  0
   20.6883   26.8951   34.5140 C   0  0  0  0  0  0  0  0  0  0  0  0
   19.2689   27.2572   34.1523 C   0  0  0  0  0  0  0  0  0  0  0  0
   18.8660   26.6981   32.8387 N   0  0  0  0  0  0  0  0  0  0  0  0
   19.8408   27.1545   31.8162 C   0  0  0  0  0  0  0  0  0  0  0  0
   21.2545   26.5958   32.0624 C   0  0  0  0  0  0  0  0  0  0  0  0
   21.6436   26.6530   33.5140 C   0  0  0  0  0  0  0  0  0  0  0  0
   22.9290   26.3877   33.8662 N   0  0  0  0  0  0  0  0  0  0  0  0
   18.6449   25.2173   32.8647 C   0  0  0  0  0  0  0  0  0  0  0  0
   18.2919   24.6678   31.4665 C   0  0  0  0  0  0  0  0  0  0  0  0
   17.4964   24.8450   33.8249 C   0  0  0  0  0  0  0  0  0  0  0  0
  1  2  1  0
  2  3  2  0
  2  4  1  0
  4  5  2  0
  5  6  1  0
  6  7  2  0
  7  8  1  0
  8  9  2  0
  9 10  1  0
 10 11  2  0
 11 12  1  0
 12 13  2  0
 13 14  1  0
  1 15  1  0
 15 16  2  0
 16 17  1  0
 17 18  2  0
 18 19  1  0
 19 20  1  0
 20 21  1  0
 21 22  1  0
 22 23  1  0
 23 24  2  0
 20 25  1  0
 25 26  1  0
 25 27  1  0
 13  4  1  0
 24 15  1  0
 12  7  1  0
 23 18  1  0
M  END
>  <AAScore>  (1) 
284.8873214556323

>  <RootName>  (1) 
./4ZLY/04_DeltaGEst/trajectory_02/rank_00/lead_0463

$$$$
