confid_1
     RDKit          3D

 27 30  0  0  0  0  0  0  0  0999 V2000
   25.3300   26.2600   34.7600 N   0  0  0  0  0  0  0  0  0  0  0  0
   26.1200   25.9200   33.6900 C   0  0  0  0  0  0  0  0  0  0  0  0
   25.6300   25.1100   32.9400 O   0  0  0  0  0  0  0  0  0  0  0  0
   27.5200   26.3800   33.4600 C   0  0  0  0  0  0  0  0  0  0  0  0
   28.1600   26.6300   34.6100 N   0  0  0  0  0  0  0  0  0  0  0  0
   29.4800   26.8500   34.5700 N   0  0  0  0  0  0  0  0  0  0  0  0
   30.1900   26.7800   33.4400 C   0  0  0  0  0  0  0  0  0  0  0  0
   31.5600   27.0500   33.5000 C   0  0  0  0  0  0  0  0  0  0  0  0
   32.2700   27.2400   32.3100 C   0  0  0  0  0  0  0  0  0  0  0  0
   31.6100   27.2500   31.0800 C   0  0  0  0  0  0  0  0  0  0  0  0
   30.2700   26.8700   31.0600 C   0  0  0  0  0  0  0  0  0  0  0  0
   29.5100   26.6900   32.2300 C   0  0  0  0  0  0  0  0  0  0  0  0
   28.1400   26.4100   32.2000 C   0  0  0  0  0  0  0  0  0  0  0  0
   27.4300   26.1300   31.0500 N   0  0  0  0  0  0  0  0  0  0  0  0
   23.8912   26.2128   34.7796 C   0  0  0  0  0  0  0  0  0  0  0  0
   23.2570   26.0097   35.9619 N   0  0  0  0  0  0  0  0  0  0  0  0
   21.9045   25.9850   36.0602 C   0  0  0  0  0  0  0  0  0  0  0  0
   21.0982   26.1931   34.9362 C   0  0  0  0  0  0  0  0  0  0  0  0
   19.7108   26.1495   35.1451 O   0  0  0  0  0  0  0  0  0  0  0  0
   18.7242   26.9417   34.4889 C   0  0  0  0  0  0  0  0  0  0  0  0
   17.9346   26.0985   33.4802 C   0  0  0  0  0  0  0  0  0  0  0  0
   18.5472   26.1067   32.1363 N   0  0  0  0  0  0  0  0  0  0  0  0
   19.8931   25.4928   32.1389 C   0  0  0  0  0  0  0  0  0  0  0  0
   20.9618   26.5748   32.3795 C   0  0  0  0  0  0  0  0  0  0  0  0
   21.7234   26.3930   33.6758 C   0  0  0  0  0  0  0  0  0  0  0  0
   23.1292   26.4281   33.6210 C   0  0  0  0  0  0  0  0  0  0  0  0
   17.6631   25.4037   31.1908 C   0  0  0  0  0  0  0  0  0  0  0  0
  1  2  1  0
  2  3  2  0
  2  4  1  0
  4  5  2  0
  5  6  1  0
  6  7  2  0
  7  8  1  0
  8  9  2  0
  9 10  1  0
 10 11  2  0
 11 12  1  0
 12 13  2  0
 13 14  1  0
  1 15  1  0
 15 16  2  0
 16 17  1  0
 17 18  2  0
 18 19  1  0
 19 20  1  0
 20 21  1  0
 21 22  1  0
 22 23  1  0
 23 24  1  0
 24 25  1  0
 25 26  2  0
 22 27  1  0
 13  4  1  0
 26 15  1  0
 12  7  1  0
 25 18  1  0
M  END
>  <AAScore>  (1) 
2855.9832257647868

>  <RootName>  (1) 
./4ZLY/04_DeltaGEst/trajectory_03/rank_00/lead_0054

$$$$
