confid_13
     RDKit          3D

 27 30  0  0  0  0  0  0  0  0999 V2000
   25.3300   26.2600   34.7600 N   0  0  0  0  0  0  0  0  0  0  0  0
   26.1200   25.9200   33.6900 C   0  0  0  0  0  0  0  0  0  0  0  0
   25.6300   25.1100   32.9400 O   0  0  0  0  0  0  0  0  0  0  0  0
   27.5200   26.3800   33.4600 C   0  0  0  0  0  0  0  0  0  0  0  0
   28.1600   26.6300   34.6100 N   0  0  0  0  0  0  0  0  0  0  0  0
   29.4800   26.8500   34.5700 N   0  0  0  0  0  0  0  0  0  0  0  0
   30.1900   26.7800   33.4400 C   0  0  0  0  0  0  0  0  0  0  0  0
   31.5600   27.0500   33.5000 C   0  0  0  0  0  0  0  0  0  0  0  0
   32.2700   27.2400   32.3100 C   0  0  0  0  0  0  0  0  0  0  0  0
   31.6100   27.2500   31.0800 C   0  0  0  0  0  0  0  0  0  0  0  0
   30.2700   26.8700   31.0600 C   0  0  0  0  0  0  0  0  0  0  0  0
   29.5100   26.6900   32.2300 C   0  0  0  0  0  0  0  0  0  0  0  0
   28.1400   26.4100   32.2000 C   0  0  0  0  0  0  0  0  0  0  0  0
   27.4300   26.1300   31.0500 N   0  0  0  0  0  0  0  0  0  0  0  0
   24.2402   25.4790   35.2835 C   0  0  0  0  0  0  0  0  0  0  0  0
   23.1958   26.1233   35.8848 N   0  0  0  0  0  0  0  0  0  0  0  0
   22.1678   25.4137   36.4149 C   0  0  0  0  0  0  0  0  0  0  0  0
   20.9697   25.9603   37.1041 C   0  0  0  0  0  0  0  0  0  0  0  0
   20.1917   24.6840   37.5145 C   0  0  0  0  0  0  0  0  0  0  0  0
   20.9731   23.5529   37.0092 N   0  0  0  0  0  0  0  0  0  0  0  0
   22.1419   24.0521   36.3801 C   0  0  0  0  0  0  0  0  0  0  0  0
   23.1954   23.3365   35.8064 C   0  0  0  0  0  0  0  0  0  0  0  0
   24.2620   24.0617   35.2543 C   0  0  0  0  0  0  0  0  0  0  0  0
   23.2144   21.9813   35.7942 F   0  0  0  0  0  0  0  0  0  0  0  0
   20.6009   22.1484   37.1790 C   0  0  0  0  0  0  0  0  0  0  0  0
   20.4414   21.5193   35.9229 O   0  0  0  0  0  0  0  0  0  0  0  0
   19.1981   21.8721   35.3580 C   0  0  0  0  0  0  0  0  0  0  0  0
  1  2  1  0
  2  3  2  0
  2  4  1  0
  4  5  2  0
  5  6  1  0
  6  7  2  0
  7  8  1  0
  8  9  2  0
  9 10  1  0
 10 11  2  0
 11 12  1  0
 12 13  2  0
 13 14  1  0
  1 15  1  0
 15 16  2  0
 16 17  1  0
 17 18  1  0
 18 19  1  0
 19 20  1  0
 20 21  1  0
 21 22  1  0
 22 23  2  0
 22 24  1  0
 20 25  1  0
 25 26  1  0
 26 27  1  0
 13  4  1  0
 23 15  1  0
 12  7  1  0
 21 17  2  0
M  END
>  <AAScore>  (1) 
7510.785580136502

>  <RootName>  (1) 
./4ZLY/04_DeltaGEst/trajectory_03/rank_00/lead_0470

$$$$
