confid_15
     RDKit          3D

 27 30  0  0  0  0  0  0  0  0999 V2000
   24.6900   26.1200   35.5300 N   0  0  0  0  0  0  0  0  0  0  0  0
   25.6600   25.6700   34.6600 C   0  0  0  0  0  0  0  0  0  0  0  0
   25.2400   25.0100   33.7200 O   0  0  0  0  0  0  0  0  0  0  0  0
   27.0300   26.2200   34.8800 C   0  0  0  0  0  0  0  0  0  0  0  0
   27.3500   26.7300   36.0700 N   0  0  0  0  0  0  0  0  0  0  0  0
   28.5700   27.1800   36.3300 N   0  0  0  0  0  0  0  0  0  0  0  0
   29.5300   27.1100   35.3900 C   0  0  0  0  0  0  0  0  0  0  0  0
   30.8300   27.5700   35.6500 C   0  0  0  0  0  0  0  0  0  0  0  0
   31.8500   27.5400   34.6900 C   0  0  0  0  0  0  0  0  0  0  0  0
   31.5100   27.1200   33.4000 C   0  0  0  0  0  0  0  0  0  0  0  0
   30.2200   26.6300   33.1100 C   0  0  0  0  0  0  0  0  0  0  0  0
   29.2400   26.6600   34.1000 C   0  0  0  0  0  0  0  0  0  0  0  0
   27.9300   26.2600   33.8100 C   0  0  0  0  0  0  0  0  0  0  0  0
   27.5200   25.7100   32.6100 N   0  0  0  0  0  0  0  0  0  0  0  0
   31.1614   28.0617   36.9614 N   0  0  0  0  0  0  0  0  0  0  0  0
   32.1358   27.3138   37.7711 C   0  0  0  0  0  0  0  0  0  0  0  0
   31.4799   26.7537   39.0419 C   0  0  0  0  0  0  0  0  0  0  0  0
   30.7908   27.7842   39.8347 N   0  0  0  0  0  0  0  0  0  0  0  0
   31.2565   29.1453   39.8349 C   0  0  0  0  0  0  0  0  0  0  0  0
   31.7861   29.7055   41.0089 C   0  0  0  0  0  0  0  0  0  0  0  0
   32.2676   31.0174   41.0095 C   0  0  0  0  0  0  0  0  0  0  0  0
   32.2354   31.7726   39.8356 C   0  0  0  0  0  0  0  0  0  0  0  0
   31.7152   31.2253   38.6606 C   0  0  0  0  0  0  0  0  0  0  0  0
   31.2248   29.9079   38.6472 C   0  0  0  0  0  0  0  0  0  0  0  0
   30.5867   29.3502   37.3940 C   0  0  0  0  0  0  0  0  0  0  0  0
   29.6931   27.3850   40.7244 C   0  0  0  0  0  0  0  0  0  0  0  0
   28.3634   27.4453   39.9831 C   0  0  0  0  0  0  0  0  0  0  0  0
  1  2  1  0
  2  3  2  0
  2  4  1  0
  4  5  2  0
  5  6  1  0
  6  7  2  0
  7  8  1  0
  8  9  2  0
  9 10  1  0
 10 11  2  0
 11 12  1  0
 12 13  2  0
 13 14  1  0
  8 15  1  0
 15 16  1  0
 16 17  1  0
 17 18  1  0
 18 19  1  0
 19 20  2  0
 20 21  1  0
 21 22  2  0
 22 23  1  0
 23 24  2  0
 24 25  1  0
 18 26  1  0
 26 27  1  0
 13  4  1  0
 25 15  1  0
 12  7  1  0
 24 19  1  0
M  END
>  <AAScore>  (1) 
-1.0295049824315474

>  <RootName>  (1) 
./4ZLY/04_DeltaGEst/trajectory_02/rank_01/lead_0027

$$$$
