confid_0
     RDKit          3D

 31 35  0  0  0  0  0  0  0  0999 V2000
   24.5700   26.8800   35.5900 N   0  0  0  0  0  0  0  0  0  0  0  0
   25.5000   26.4000   34.6900 C   0  0  0  0  0  0  0  0  0  0  0  0
   25.1700   25.5200   33.9100 O   0  0  0  0  0  0  0  0  0  0  0  0
   26.8400   27.0200   34.7400 C   0  0  0  0  0  0  0  0  0  0  0  0
   27.3800   27.2800   35.9400 N   0  0  0  0  0  0  0  0  0  0  0  0
   28.6200   27.7400   36.0300 N   0  0  0  0  0  0  0  0  0  0  0  0
   29.3800   28.0000   34.9600 C   0  0  0  0  0  0  0  0  0  0  0  0
   30.6700   28.5000   35.1300 C   0  0  0  0  0  0  0  0  0  0  0  0
   31.5400   28.6100   34.0300 C   0  0  0  0  0  0  0  0  0  0  0  0
   31.0900   28.2200   32.7700 C   0  0  0  0  0  0  0  0  0  0  0  0
   29.8000   27.7000   32.6000 C   0  0  0  0  0  0  0  0  0  0  0  0
   28.9600   27.5500   33.7100 C   0  0  0  0  0  0  0  0  0  0  0  0
   27.6600   27.0300   33.5900 C   0  0  0  0  0  0  0  0  0  0  0  0
   27.1600   26.7400   32.3400 N   0  0  0  0  0  0  0  0  0  0  0  0
   23.2142   26.4068   35.6439 C   0  0  0  0  0  0  0  0  0  0  0  0
   22.5337   26.3099   34.5286 N   0  0  0  0  0  0  0  0  0  0  0  0
   21.1619   25.8749   34.5046 C   0  0  0  0  0  0  0  0  0  0  0  0
   20.5058   25.7525   35.6694 C   0  0  0  0  0  0  0  0  0  0  0  0
   20.1384   24.3633   36.0723 C   0  0  0  0  0  0  0  0  0  0  0  0
   21.3157   23.7294   36.7004 N   0  0  0  0  0  0  0  0  0  0  0  0
   21.2801   22.2874   36.9534 C   0  0  0  0  0  0  0  0  0  0  0  0
   22.4804   24.5001   37.1273 C   0  0  0  0  0  0  0  0  0  0  0  0
   23.4875   23.8797   37.5640 O   0  0  0  0  0  0  0  0  0  0  0  0
   22.5321   26.0418   36.9809 C   0  0  2  0  0  0  0  0  0  0  0  0
   21.0709   26.5286   36.8207 C   0  0  0  0  0  0  0  0  0  0  0  0
   23.2391   26.6934   38.1976 C   0  0  0  0  0  0  0  0  0  0  0  0
   24.5698   26.3342   38.5247 C   0  0  0  0  0  0  0  0  0  0  0  0
   25.2284   26.9055   39.6162 C   0  0  0  0  0  0  0  0  0  0  0  0
   24.5812   27.8504   40.4084 C   0  0  0  0  0  0  0  0  0  0  0  0
   23.2772   28.2348   40.1037 C   0  0  0  0  0  0  0  0  0  0  0  0
   22.6119   27.6717   39.0101 C   0  0  0  0  0  0  0  0  0  0  0  0
  1  2  1  0
  2  3  2  0
  2  4  1  0
  4  5  2  0
  5  6  1  0
  6  7  2  0
  7  8  1  0
  8  9  2  0
  9 10  1  0
 10 11  2  0
 11 12  1  0
 12 13  2  0
 13 14  1  0
  1 15  1  0
 15 16  2  0
 16 17  1  0
 17 18  2  0
 18 19  1  0
 19 20  1  0
 20 21  1  0
 20 22  1  0
 22 23  2  0
 22 24  1  0
 24 25  1  0
 24 26  1  1
 26 27  2  0
 27 28  1  0
 28 29  2  0
 29 30  1  0
 30 31  2  0
 13  4  1  0
 24 15  1  0
 31 26  1  0
 12  7  1  0
 25 18  1  0
M  END
>  <AAScore>  (1) 
3607.345095596083

>  <RootName>  (1) 
./4ZLY/04_DeltaGEst/trajectory_05/rank_00/lead_0352

$$$$
