confid_14
     RDKit          3D

 26 27  0  0  0  0  0  0  0  0999 V2000
   24.5700   26.8800   35.5900 N   0  0  0  0  0  0  0  0  0  0  0  0
   25.5000   26.4000   34.6900 C   0  0  0  0  0  0  0  0  0  0  0  0
   25.1700   25.5200   33.9100 O   0  0  0  0  0  0  0  0  0  0  0  0
   26.8400   27.0200   34.7400 C   0  0  0  0  0  0  0  0  0  0  0  0
   27.3800   27.2800   35.9400 N   0  0  0  0  0  0  0  0  0  0  0  0
   28.6200   27.7400   36.0300 N   0  0  0  0  0  0  0  0  0  0  0  0
   29.3800   28.0000   34.9600 C   0  0  0  0  0  0  0  0  0  0  0  0
   30.6700   28.5000   35.1300 C   0  0  0  0  0  0  0  0  0  0  0  0
   31.5400   28.6100   34.0300 C   0  0  0  0  0  0  0  0  0  0  0  0
   31.0900   28.2200   32.7700 C   0  0  0  0  0  0  0  0  0  0  0  0
   29.8000   27.7000   32.6000 C   0  0  0  0  0  0  0  0  0  0  0  0
   28.9600   27.5500   33.7100 C   0  0  0  0  0  0  0  0  0  0  0  0
   27.6600   27.0300   33.5900 C   0  0  0  0  0  0  0  0  0  0  0  0
   27.1600   26.7400   32.3400 N   0  0  0  0  0  0  0  0  0  0  0  0
   33.1874   29.2143   34.2569 S   0  0  0  0  0  6  0  0  0  0  0  0
   34.0569   28.6161   33.1859 O   0  0  0  0  0  0  0  0  0  0  0  0
   33.6763   28.7023   35.5840 O   0  0  0  0  0  0  0  0  0  0  0  0
   33.2723   31.0530   34.2480 C   0  0  2  0  0  0  0  0  0  0  0  0
   32.3302   31.4935   35.4184 C   0  0  0  0  0  0  0  0  0  0  0  0
   32.1730   33.0058   35.6921 C   0  0  0  0  0  0  0  0  0  0  0  0
   31.3119   33.7316   34.6563 C   0  0  0  0  0  0  0  0  0  0  0  0
   32.6888   31.5920   33.0621 O   0  0  0  0  0  0  0  0  0  0  0  0
   33.2567   31.1347   31.8519 C   0  0  0  0  0  0  0  0  0  0  0  0
   34.7410   31.6251   34.5280 C   0  0  0  0  0  0  0  0  0  0  0  0
   35.9220   30.6569   34.3048 C   0  0  0  0  0  0  0  0  0  0  0  0
   35.0458   32.9443   33.7843 C   0  0  0  0  0  0  0  0  0  0  0  0
  1  2  1  0
  2  3  2  0
  2  4  1  0
  4  5  2  0
  5  6  1  0
  6  7  2  0
  7  8  1  0
  8  9  2  0
  9 10  1  0
 10 11  2  0
 11 12  1  0
 12 13  2  0
 13 14  1  0
  9 15  1  0
 15 16  2  0
 15 17  2  0
 15 18  1  0
 18 19  1  1
 19 20  1  0
 20 21  1  0
 18 22  1  0
 22 23  1  0
 18 24  1  0
 24 25  1  0
 24 26  1  0
 13  4  1  0
 12  7  1  0
M  END
>  <AAScore>  (1) 
-5.665181773057296

>  <RootName>  (1) 
./4ZLY/04_DeltaGEst/trajectory_05/rank_01/lead_0073

$$$$
