confid_4
     RDKit          3D

 29 33  0  0  0  0  0  0  0  0999 V2000
   24.2000   26.2400   35.6900 N   0  0  0  0  0  0  0  0  0  0  0  0
   24.8500   26.2800   34.4800 C   0  0  0  0  0  0  0  0  0  0  0  0
   24.3100   25.7400   33.5400 O   0  0  0  0  0  0  0  0  0  0  0  0
   26.1800   26.9700   34.4700 C   0  0  0  0  0  0  0  0  0  0  0  0
   26.6500   27.6000   35.5500 N   0  0  0  0  0  0  0  0  0  0  0  0
   27.7900   28.2700   35.6200 N   0  0  0  0  0  0  0  0  0  0  0  0
   28.5400   28.3000   34.5100 C   0  0  0  0  0  0  0  0  0  0  0  0
   29.7700   28.9400   34.5600 C   0  0  0  0  0  0  0  0  0  0  0  0
   30.7000   28.8900   33.5000 C   0  0  0  0  0  0  0  0  0  0  0  0
   30.3700   28.1400   32.3700 C   0  0  0  0  0  0  0  0  0  0  0  0
   29.1200   27.5200   32.2800 C   0  0  0  0  0  0  0  0  0  0  0  0
   28.2100   27.6100   33.3300 C   0  0  0  0  0  0  0  0  0  0  0  0
   26.9700   26.9700   33.3100 C   0  0  0  0  0  0  0  0  0  0  0  0
   26.5300   26.2400   32.2200 N   0  0  0  0  0  0  0  0  0  0  0  0
   30.1351   29.6858   35.7330 N   0  0  0  0  0  0  0  0  0  0  0  0
   29.4869   30.9796   35.9903 C   0  0  0  0  0  0  0  0  0  0  0  0
   30.2423   31.7811   37.0561 C   0  0  0  0  0  0  0  0  0  0  0  0
   31.6899   31.6539   36.8470 N   0  0  0  0  0  0  0  0  0  0  0  0
   32.3050   30.3294   36.6853 C   0  0  0  0  0  0  0  0  0  0  0  0
   31.2441   29.2291   36.5781 C   0  0  0  0  0  0  0  0  0  0  0  0
   32.5401   32.7978   37.0083 C   0  0  0  0  0  0  0  0  0  0  0  0
   33.3813   32.8522   38.0777 N   0  0  0  0  0  0  0  0  0  0  0  0
   34.1864   33.9214   38.3094 C   0  0  0  0  0  0  0  0  0  0  0  0
   34.1584   35.0161   37.4467 C   0  0  0  0  0  0  0  0  0  0  0  0
   33.3158   34.9892   36.3356 C   0  0  0  0  0  0  0  0  0  0  0  0
   32.5174   33.8633   36.0809 C   0  0  0  0  0  0  0  0  0  0  0  0
   31.6214   33.8342   34.8664 C   0  0  0  0  0  0  0  0  0  0  0  0
   32.2955   34.1766   33.5422 C   0  0  0  0  0  0  0  0  0  0  0  0
   31.9426   32.7368   33.8586 C   0  0  0  0  0  0  0  0  0  0  0  0
  1  2  1  0
  2  3  2  0
  2  4  1  0
  4  5  2  0
  5  6  1  0
  6  7  2  0
  7  8  1  0
  8  9  2  0
  9 10  1  0
 10 11  2  0
 11 12  1  0
 12 13  2  0
 13 14  1  0
  8 15  1  0
 15 16  1  0
 16 17  1  0
 17 18  1  0
 18 19  1  0
 19 20  1  0
 18 21  1  0
 21 22  2  0
 22 23  1  0
 23 24  2  0
 24 25  1  0
 25 26  2  0
 26 27  1  0
 27 28  1  0
 28 29  1  0
 13  4  1  0
 20 15  1  0
 26 21  1  0
 29 27  1  0
 12  7  1  0
M  END
>  <AAScore>  (1) 
-8.55011599950058

>  <RootName>  (1) 
./4ZLY/04_DeltaGEst/trajectory_04/rank_01/lead_0272

$$$$
