confid_7
     RDKit          3D

 29 32  0  0  0  0  0  0  0  0999 V2000
   24.6900   26.1200   35.5300 N   0  0  0  0  0  0  0  0  0  0  0  0
   25.6600   25.6700   34.6600 C   0  0  0  0  0  0  0  0  0  0  0  0
   25.2400   25.0100   33.7200 O   0  0  0  0  0  0  0  0  0  0  0  0
   27.0300   26.2200   34.8800 C   0  0  0  0  0  0  0  0  0  0  0  0
   27.3500   26.7300   36.0700 N   0  0  0  0  0  0  0  0  0  0  0  0
   28.5700   27.1800   36.3300 N   0  0  0  0  0  0  0  0  0  0  0  0
   29.5300   27.1100   35.3900 C   0  0  0  0  0  0  0  0  0  0  0  0
   30.8300   27.5700   35.6500 C   0  0  0  0  0  0  0  0  0  0  0  0
   31.8500   27.5400   34.6900 C   0  0  0  0  0  0  0  0  0  0  0  0
   31.5100   27.1200   33.4000 C   0  0  0  0  0  0  0  0  0  0  0  0
   30.2200   26.6300   33.1100 C   0  0  0  0  0  0  0  0  0  0  0  0
   29.2400   26.6600   34.1000 C   0  0  0  0  0  0  0  0  0  0  0  0
   27.9300   26.2600   33.8100 C   0  0  0  0  0  0  0  0  0  0  0  0
   27.5200   25.7100   32.6100 N   0  0  0  0  0  0  0  0  0  0  0  0
   23.2653   26.1496   35.2938 C   0  0  0  0  0  0  0  0  0  0  0  0
   22.4711   26.2603   36.3295 N   0  0  0  0  0  0  0  0  0  0  0  0
   21.0418   26.3539   36.2398 C   0  0  0  0  0  0  0  0  0  0  0  0
   20.4798   26.4719   35.0453 C   0  0  0  0  0  0  0  0  0  0  0  0
   19.0151   26.5168   34.7261 C   0  0  0  0  0  0  0  0  0  0  0  0
   19.0016   26.4830   33.2599 N   0  0  0  0  0  0  0  0  0  0  0  0
   17.8324   26.4224   32.4232 C   0  0  0  0  0  0  0  0  0  0  0  0
   17.9663   26.3233   31.1723 O   0  0  0  0  0  0  0  0  0  0  0  0
   16.4433   26.4047   33.0217 C   0  0  0  0  0  0  0  0  0  0  0  0
   15.9169   24.9696   33.0924 C   0  0  0  0  0  0  0  0  0  0  0  0
   15.4845   27.2951   32.2248 C   0  0  0  0  0  0  0  0  0  0  0  0
   20.3592   26.4388   32.8133 C   0  0  0  0  0  0  0  0  0  0  0  0
   20.6998   26.3285   31.6083 O   0  0  0  0  0  0  0  0  0  0  0  0
   21.2823   26.4833   33.8838 N   0  0  0  0  0  0  0  0  0  0  0  0
   22.6875   26.0842   33.8817 C   0  0  0  0  0  0  0  0  0  0  0  0
  1  2  1  0
  2  3  2  0
  2  4  1  0
  4  5  2  0
  5  6  1  0
  6  7  2  0
  7  8  1  0
  8  9  2  0
  9 10  1  0
 10 11  2  0
 11 12  1  0
 12 13  2  0
 13 14  1  0
  1 15  1  0
 15 16  2  0
 16 17  1  0
 17 18  2  0
 18 19  1  0
 19 20  1  0
 20 21  1  0
 21 22  2  0
 21 23  1  0
 23 24  1  0
 23 25  1  0
 20 26  1  0
 26 27  2  0
 26 28  1  0
 28 29  1  0
 13  4  1  0
 29 15  1  0
 12  7  1  0
 28 18  1  0
M  END
>  <AAScore>  (1) 
230.7663643676987

>  <RootName>  (1) 
./4ZLY/04_DeltaGEst/trajectory_02/rank_00/lead_0047

$$$$
