confid_17
     RDKit          3D

 27 29  0  0  0  0  0  0  0  0999 V2000
   24.5700   26.8800   35.5900 N   0  0  0  0  0  0  0  0  0  0  0  0
   25.5000   26.4000   34.6900 C   0  0  0  0  0  0  0  0  0  0  0  0
   25.1700   25.5200   33.9100 O   0  0  0  0  0  0  0  0  0  0  0  0
   26.8400   27.0200   34.7400 C   0  0  0  0  0  0  0  0  0  0  0  0
   27.3800   27.2800   35.9400 N   0  0  0  0  0  0  0  0  0  0  0  0
   28.6200   27.7400   36.0300 N   0  0  0  0  0  0  0  0  0  0  0  0
   29.3800   28.0000   34.9600 C   0  0  0  0  0  0  0  0  0  0  0  0
   30.6700   28.5000   35.1300 C   0  0  0  0  0  0  0  0  0  0  0  0
   31.5400   28.6100   34.0300 C   0  0  0  0  0  0  0  0  0  0  0  0
   31.0900   28.2200   32.7700 C   0  0  0  0  0  0  0  0  0  0  0  0
   29.8000   27.7000   32.6000 C   0  0  0  0  0  0  0  0  0  0  0  0
   28.9600   27.5500   33.7100 C   0  0  0  0  0  0  0  0  0  0  0  0
   27.6600   27.0300   33.5900 C   0  0  0  0  0  0  0  0  0  0  0  0
   27.1600   26.7400   32.3400 N   0  0  0  0  0  0  0  0  0  0  0  0
   23.2692   26.2456   35.8098 C   0  0  0  0  0  0  0  0  0  0  0  0
   23.4348   24.9209   36.5104 C   0  0  0  0  0  0  0  0  0  0  0  0
   24.1560   24.8469   37.7088 C   0  0  0  0  0  0  0  0  0  0  0  0
   24.3125   23.6224   38.3857 C   0  0  0  0  0  0  0  0  0  0  0  0
   25.0575   23.5495   39.5737 O   0  0  0  0  0  0  0  0  0  0  0  0
   25.7541   24.6383   40.1715 C   0  0  0  0  0  0  0  0  0  0  0  0
   23.7083   22.4539   37.8518 C   0  0  0  0  0  0  0  0  0  0  0  0
   22.9788   22.5323   36.6527 C   0  0  0  0  0  0  0  0  0  0  0  0
   22.8523   23.7631   35.9847 C   0  0  0  0  0  0  0  0  0  0  0  0
   22.3832   21.3580   36.1607 O   0  0  0  0  0  0  0  0  0  0  0  0
   21.5671   21.2894   34.9950 C   0  0  0  0  0  0  0  0  0  0  0  0
   23.7930   21.1857   38.4585 O   0  0  0  0  0  0  0  0  0  0  0  0
   24.4002   20.8834   39.7118 C   0  0  0  0  0  0  0  0  0  0  0  0
  1  2  1  0
  2  3  2  0
  2  4  1  0
  4  5  2  0
  5  6  1  0
  6  7  2  0
  7  8  1  0
  8  9  2  0
  9 10  1  0
 10 11  2  0
 11 12  1  0
 12 13  2  0
 13 14  1  0
  1 15  1  0
 15 16  1  0
 16 17  2  0
 17 18  1  0
 18 19  1  0
 19 20  1  0
 18 21  2  0
 21 22  1  0
 22 23  2  0
 22 24  1  0
 24 25  1  0
 21 26  1  0
 26 27  1  0
 13  4  1  0
 23 16  1  0
 12  7  1  0
M  END
>  <AAScore>  (1) 
218.46110358689108

>  <RootName>  (1) 
./4ZLY/04_DeltaGEst/trajectory_05/rank_00/lead_0378

$$$$
