confid_8
     RDKit          3D

 30 33  0  0  0  0  0  0  0  0999 V2000
   24.5500   26.3900   36.2500 N   0  0  0  0  0  0  0  0  0  0  0  0
   25.6000   26.1300   35.4000 C   0  0  0  0  0  0  0  0  0  0  0  0
   25.4300   25.4300   34.4200 O   0  0  0  0  0  0  0  0  0  0  0  0
   26.9800   26.6300   35.7100 C   0  0  0  0  0  0  0  0  0  0  0  0
   27.3200   26.8200   36.9800 N   0  0  0  0  0  0  0  0  0  0  0  0
   28.4700   27.4000   37.3100 N   0  0  0  0  0  0  0  0  0  0  0  0
   29.4000   27.6300   36.3700 C   0  0  0  0  0  0  0  0  0  0  0  0
   30.6600   28.0500   36.8000 C   0  0  0  0  0  0  0  0  0  0  0  0
   31.5700   28.3600   35.7800 C   0  0  0  0  0  0  0  0  0  0  0  0
   31.3700   28.1000   34.4300 C   0  0  0  0  0  0  0  0  0  0  0  0
   30.1200   27.5900   34.0500 C   0  0  0  0  0  0  0  0  0  0  0  0
   29.1500   27.3400   35.0300 C   0  0  0  0  0  0  0  0  0  0  0  0
   27.8800   26.8900   34.6600 C   0  0  0  0  0  0  0  0  0  0  0  0
   27.4800   26.6100   33.3700 N   0  0  0  0  0  0  0  0  0  0  0  0
   30.9995   28.3335   38.2167 C   0  0  0  0  0  0  0  0  0  0  0  0
   32.1492   28.0377   38.6412 O   0  0  0  0  0  0  0  0  0  0  0  0
   30.0472   28.9316   39.1147 N   0  0  0  0  0  0  0  0  0  0  0  0
   29.2348   30.0814   38.6836 C   0  0  0  0  0  0  0  0  0  0  0  0
   27.8206   29.8914   39.1504 C   0  0  0  0  0  0  0  0  0  0  0  0
   26.7278   30.2121   38.3353 C   0  0  0  0  0  0  0  0  0  0  0  0
   25.4263   30.0013   38.7977 C   0  0  0  0  0  0  0  0  0  0  0  0
   25.1991   29.4839   40.0793 C   0  0  0  0  0  0  0  0  0  0  0  0
   23.8712   29.2951   40.4924 O   0  0  0  0  0  0  0  0  0  0  0  0
   23.4801   28.8020   41.7706 C   0  0  0  0  0  0  0  0  0  0  0  0
   23.8543   29.6972   42.7565 F   0  0  0  0  0  0  0  0  0  0  0  0
   22.1070   28.6536   41.7966 F   0  0  0  0  0  0  0  0  0  0  0  0
   26.3005   29.1720   40.9019 C   0  0  0  0  0  0  0  0  0  0  0  0
   27.6085   29.3651   40.4328 C   0  0  0  0  0  0  0  0  0  0  0  0
   28.8064   29.0638   41.2951 C   0  0  0  0  0  0  0  0  0  0  0  0
   29.9183   28.3794   40.4763 C   0  0  0  0  0  0  0  0  0  0  0  0
  1  2  1  0
  2  3  2  0
  2  4  1  0
  4  5  2  0
  5  6  1  0
  6  7  2  0
  7  8  1  0
  8  9  2  0
  9 10  1  0
 10 11  2  0
 11 12  1  0
 12 13  2  0
 13 14  1  0
  8 15  1  0
 15 16  2  0
 15 17  1  0
 17 18  1  0
 18 19  1  0
 19 20  2  0
 20 21  1  0
 21 22  2  0
 22 23  1  0
 23 24  1  0
 24 25  1  0
 24 26  1  0
 22 27  1  0
 27 28  2  0
 28 29  1  0
 29 30  1  0
 13  4  1  0
 30 17  1  0
 12  7  1  0
 28 19  1  0
M  END
>  <AAScore>  (1) 
1.164107700959748

>  <RootName>  (1) 
./4ZLY/04_DeltaGEst/trajectory_01/rank_01/lead_0290

$$$$
