confid_16
     RDKit          3D

 27 31  0  0  0  0  0  0  0  0999 V2000
   24.2000   26.2400   35.6900 N   0  0  0  0  0  0  0  0  0  0  0  0
   24.8500   26.2800   34.4800 C   0  0  0  0  0  0  0  0  0  0  0  0
   24.3100   25.7400   33.5400 O   0  0  0  0  0  0  0  0  0  0  0  0
   26.1800   26.9700   34.4700 C   0  0  0  0  0  0  0  0  0  0  0  0
   26.6500   27.6000   35.5500 N   0  0  0  0  0  0  0  0  0  0  0  0
   27.7900   28.2700   35.6200 N   0  0  0  0  0  0  0  0  0  0  0  0
   28.5400   28.3000   34.5100 C   0  0  0  0  0  0  0  0  0  0  0  0
   29.7700   28.9400   34.5600 C   0  0  0  0  0  0  0  0  0  0  0  0
   30.7000   28.8900   33.5000 C   0  0  0  0  0  0  0  0  0  0  0  0
   30.3700   28.1400   32.3700 C   0  0  0  0  0  0  0  0  0  0  0  0
   29.1200   27.5200   32.2800 C   0  0  0  0  0  0  0  0  0  0  0  0
   28.2100   27.6100   33.3300 C   0  0  0  0  0  0  0  0  0  0  0  0
   26.9700   26.9700   33.3100 C   0  0  0  0  0  0  0  0  0  0  0  0
   26.5300   26.2400   32.2200 N   0  0  0  0  0  0  0  0  0  0  0  0
   30.1360   29.6717   35.7428 N   0  0  0  0  0  0  0  0  0  0  0  0
   29.5460   31.0050   35.9437 C   0  0  0  0  0  0  0  0  0  0  0  0
   29.5408   31.4386   37.4144 C   0  0  0  0  0  0  0  0  0  0  0  0
   30.8962   31.8911   37.8872 C   0  0  0  0  0  0  0  0  0  0  0  0
   32.1321   31.2670   37.6120 C   0  0  0  0  0  0  0  0  0  0  0  0
   33.3863   32.1023   38.4160 S   0  0  0  0  0  0  0  0  0  0  0  0
   32.3435   33.2033   39.1233 C   0  0  0  0  0  0  0  0  0  0  0  0
   32.4367   34.3518   40.0465 C   0  0  0  0  0  0  0  0  0  0  0  0
   30.9363   34.7596   40.1648 C   0  0  0  0  0  0  0  0  0  0  0  0
   30.2012   33.8428   39.3395 O   0  0  0  0  0  0  0  0  0  0  0  0
   31.0831   32.9610   38.7598 C   0  0  0  0  0  0  0  0  0  0  0  0
   32.3853   30.1195   36.6764 C   0  0  0  0  0  0  0  0  0  0  0  0
   31.2074   29.1446   36.6014 C   0  0  0  0  0  0  0  0  0  0  0  0
  1  2  1  0
  2  3  2  0
  2  4  1  0
  4  5  2  0
  5  6  1  0
  6  7  2  0
  7  8  1  0
  8  9  2  0
  9 10  1  0
 10 11  2  0
 11 12  1  0
 12 13  2  0
 13 14  1  0
  8 15  1  0
 15 16  1  0
 16 17  1  0
 17 18  1  0
 18 19  2  0
 19 20  1  0
 20 21  1  0
 21 22  1  0
 22 23  1  0
 23 24  1  0
 24 25  1  0
 19 26  1  0
 26 27  1  0
 13  4  1  0
 27 15  1  0
 12  7  1  0
 25 18  1  0
 25 21  2  0
M  END
>  <AAScore>  (1) 
-7.4718743229821

>  <RootName>  (1) 
./4ZLY/04_DeltaGEst/trajectory_04/rank_01/lead_0150

$$$$
