confid_8
     RDKit          3D

 29 32  0  0  0  0  0  0  0  0999 V2000
   24.4800   26.1000   36.1300 N   0  0  0  0  0  0  0  0  0  0  0  0
   25.2500   26.2500   34.9900 C   0  0  0  0  0  0  0  0  0  0  0  0
   24.7400   25.7600   33.9900 O   0  0  0  0  0  0  0  0  0  0  0  0
   26.5900   26.8900   34.9600 C   0  0  0  0  0  0  0  0  0  0  0  0
   27.0600   27.2400   36.1600 N   0  0  0  0  0  0  0  0  0  0  0  0
   28.3000   27.7100   36.2400 N   0  0  0  0  0  0  0  0  0  0  0  0
   29.0500   27.9600   35.1500 C   0  0  0  0  0  0  0  0  0  0  0  0
   30.3400   28.4900   35.2600 C   0  0  0  0  0  0  0  0  0  0  0  0
   31.1100   28.8200   34.1400 C   0  0  0  0  0  0  0  0  0  0  0  0
   30.5200   28.6700   32.8800 C   0  0  0  0  0  0  0  0  0  0  0  0
   29.2900   28.0200   32.7700 C   0  0  0  0  0  0  0  0  0  0  0  0
   28.5200   27.7100   33.8900 C   0  0  0  0  0  0  0  0  0  0  0  0
   27.2700   27.0800   33.7600 C   0  0  0  0  0  0  0  0  0  0  0  0
   26.7500   26.8800   32.4900 N   0  0  0  0  0  0  0  0  0  0  0  0
   23.0443   26.0387   36.1406 C   0  0  0  0  0  0  0  0  0  0  0  0
   22.3142   26.4489   35.1536 N   0  0  0  0  0  0  0  0  0  0  0  0
   20.9603   26.3314   35.5623 C   0  0  0  0  0  0  0  0  0  0  0  0
   20.8706   25.8589   36.7947 C   0  0  0  0  0  0  0  0  0  0  0  0
   19.5909   25.6399   37.5446 C   0  0  0  0  0  0  0  0  0  0  0  0
   19.6467   24.3567   38.2554 N   0  0  0  0  0  0  0  0  0  0  0  0
   20.5575   24.2495   39.4054 C   0  0  0  0  0  0  0  0  0  0  0  0
   21.9194   23.6543   39.0044 C   0  0  0  0  0  0  0  0  0  0  0  0
   22.4667   24.1092   37.6353 C   0  0  0  0  0  0  0  0  0  0  0  0
   22.2464   25.6052   37.3333 C   0  0  1  0  0  0  0  0  0  0  0  0
   19.1156   23.1686   37.6316 C   0  0  0  0  0  0  0  0  0  0  0  0
   18.9806   23.1297   36.3782 O   0  0  0  0  0  0  0  0  0  0  0  0
   18.7467   22.0201   38.4134 N   0  0  0  0  0  0  0  0  0  0  0  0
   17.9374   22.1673   39.6243 C   0  0  0  0  0  0  0  0  0  0  0  0
   19.0505   20.6808   37.9084 C   0  0  0  0  0  0  0  0  0  0  0  0
  1  2  1  0
  2  3  2  0
  2  4  1  0
  4  5  2  0
  5  6  1  0
  6  7  2  0
  7  8  1  0
  8  9  2  0
  9 10  1  0
 10 11  2  0
 11 12  1  0
 12 13  2  0
 13 14  1  0
  1 15  1  0
 15 16  2  0
 16 17  1  0
 17 18  2  0
 18 19  1  0
 19 20  1  0
 20 21  1  0
 21 22  1  0
 22 23  1  0
 24 23  1  6
 20 25  1  0
 25 26  2  0
 25 27  1  0
 27 28  1  0
 27 29  1  0
 13  4  1  0
 24 15  1  0
 12  7  1  0
 24 18  1  0
M  END
>  <AAScore>  (1) 
4307.726240165051

>  <RootName>  (1) 
./4ZLY/04_DeltaGEst/trajectory_00/rank_00/lead_0089

$$$$
