confid_18
     RDKit          3D

 29 33  0  0  0  0  0  0  0  0999 V2000
   25.3300   26.2600   34.7600 N   0  0  0  0  0  0  0  0  0  0  0  0
   26.1200   25.9200   33.6900 C   0  0  0  0  0  0  0  0  0  0  0  0
   25.6300   25.1100   32.9400 O   0  0  0  0  0  0  0  0  0  0  0  0
   27.5200   26.3800   33.4600 C   0  0  0  0  0  0  0  0  0  0  0  0
   28.1600   26.6300   34.6100 N   0  0  0  0  0  0  0  0  0  0  0  0
   29.4800   26.8500   34.5700 N   0  0  0  0  0  0  0  0  0  0  0  0
   30.1900   26.7800   33.4400 C   0  0  0  0  0  0  0  0  0  0  0  0
   31.5600   27.0500   33.5000 C   0  0  0  0  0  0  0  0  0  0  0  0
   32.2700   27.2400   32.3100 C   0  0  0  0  0  0  0  0  0  0  0  0
   31.6100   27.2500   31.0800 C   0  0  0  0  0  0  0  0  0  0  0  0
   30.2700   26.8700   31.0600 C   0  0  0  0  0  0  0  0  0  0  0  0
   29.5100   26.6900   32.2300 C   0  0  0  0  0  0  0  0  0  0  0  0
   28.1400   26.4100   32.2000 C   0  0  0  0  0  0  0  0  0  0  0  0
   27.4300   26.1300   31.0500 N   0  0  0  0  0  0  0  0  0  0  0  0
   23.8933   26.3390   34.7119 C   0  0  0  0  0  0  0  0  0  0  0  0
   23.2360   26.3138   33.5184 N   0  0  0  0  0  0  0  0  0  0  0  0
   21.8821   26.4183   33.4289 C   0  0  0  0  0  0  0  0  0  0  0  0
   21.2408   26.4419   32.0659 C   0  0  0  0  0  0  0  0  0  0  0  0
   19.7791   26.2393   32.0936 N   0  0  0  0  0  0  0  0  0  0  0  0
   19.0761   26.2128   30.8313 C   0  0  0  0  0  0  0  0  0  0  0  0
   19.6376   26.6574   29.7923 O   0  0  0  0  0  0  0  0  0  0  0  0
   17.6644   25.7036   30.7231 C   0  0  0  0  0  0  0  0  0  0  0  0
   17.4049   24.7633   29.5538 C   0  0  0  0  0  0  0  0  0  0  0  0
   17.5107   24.2086   30.9630 C   0  0  0  0  0  0  0  0  0  0  0  0
   19.0805   25.9156   33.3494 C   0  0  0  0  0  0  0  0  0  0  0  0
   19.6342   26.7437   34.5064 C   0  0  0  0  0  0  0  0  0  0  0  0
   21.1198   26.5731   34.5974 C   0  0  0  0  0  0  0  0  0  0  0  0
   21.7741   26.6264   35.8345 C   0  0  0  0  0  0  0  0  0  0  0  0
   23.1626   26.5055   35.8949 C   0  0  0  0  0  0  0  0  0  0  0  0
  1  2  1  0
  2  3  2  0
  2  4  1  0
  4  5  2  0
  5  6  1  0
  6  7  2  0
  7  8  1  0
  8  9  2  0
  9 10  1  0
 10 11  2  0
 11 12  1  0
 12 13  2  0
 13 14  1  0
  1 15  1  0
 15 16  2  0
 16 17  1  0
 17 18  1  0
 18 19  1  0
 19 20  1  0
 20 21  2  0
 20 22  1  0
 22 23  1  0
 23 24  1  0
 19 25  1  0
 25 26  1  0
 26 27  1  0
 27 28  1  0
 28 29  2  0
 13  4  1  0
 29 15  1  0
 12  7  1  0
 27 17  2  0
 24 22  1  0
M  END
>  <AAScore>  (1) 
163.96702784112566

>  <RootName>  (1) 
./4ZLY/04_DeltaGEst/trajectory_03/rank_00/lead_0268

$$$$
