confid_12
     RDKit          3D

 27 30  0  0  0  0  0  0  0  0999 V2000
   24.6900   26.1200   35.5300 N   0  0  0  0  0  0  0  0  0  0  0  0
   25.6600   25.6700   34.6600 C   0  0  0  0  0  0  0  0  0  0  0  0
   25.2400   25.0100   33.7200 O   0  0  0  0  0  0  0  0  0  0  0  0
   27.0300   26.2200   34.8800 C   0  0  0  0  0  0  0  0  0  0  0  0
   27.3500   26.7300   36.0700 N   0  0  0  0  0  0  0  0  0  0  0  0
   28.5700   27.1800   36.3300 N   0  0  0  0  0  0  0  0  0  0  0  0
   29.5300   27.1100   35.3900 C   0  0  0  0  0  0  0  0  0  0  0  0
   30.8300   27.5700   35.6500 C   0  0  0  0  0  0  0  0  0  0  0  0
   31.8500   27.5400   34.6900 C   0  0  0  0  0  0  0  0  0  0  0  0
   31.5100   27.1200   33.4000 C   0  0  0  0  0  0  0  0  0  0  0  0
   30.2200   26.6300   33.1100 C   0  0  0  0  0  0  0  0  0  0  0  0
   29.2400   26.6600   34.1000 C   0  0  0  0  0  0  0  0  0  0  0  0
   27.9300   26.2600   33.8100 C   0  0  0  0  0  0  0  0  0  0  0  0
   27.5200   25.7100   32.6100 N   0  0  0  0  0  0  0  0  0  0  0  0
   31.1469   28.0596   36.9658 N   0  0  0  0  0  0  0  0  0  0  0  0
   31.1648   27.1491   38.1069 C   0  0  0  0  0  0  0  0  0  0  0  0
   30.4155   27.7798   39.2802 C   0  0  0  0  0  0  0  0  0  0  0  0
   30.7410   29.2506   39.4827 C   0  0  0  0  0  0  0  0  0  0  0  0
   30.3491   29.9277   40.6690 C   0  0  0  0  0  0  0  0  0  0  0  0
   30.6787   31.2837   40.8153 C   0  0  0  0  0  0  0  0  0  0  0  0
   31.3327   31.9476   39.8312 N   0  0  0  0  0  0  0  0  0  0  0  0
   31.6815   31.3417   38.6707 C   0  0  0  0  0  0  0  0  0  0  0  0
   31.3759   29.9930   38.4540 C   0  0  0  0  0  0  0  0  0  0  0  0
   31.7710   29.3708   37.1375 C   0  0  0  0  0  0  0  0  0  0  0  0
   29.5331   29.2810   41.7711 C   0  0  0  0  0  0  0  0  0  0  0  0
   28.2641   29.8970   41.8808 O   0  0  0  0  0  0  0  0  0  0  0  0
   27.3737   29.3511   40.9314 C   0  0  0  0  0  0  0  0  0  0  0  0
  1  2  1  0
  2  3  2  0
  2  4  1  0
  4  5  2  0
  5  6  1  0
  6  7  2  0
  7  8  1  0
  8  9  2  0
  9 10  1  0
 10 11  2  0
 11 12  1  0
 12 13  2  0
 13 14  1  0
  8 15  1  0
 15 16  1  0
 16 17  1  0
 17 18  1  0
 18 19  2  0
 19 20  1  0
 20 21  2  0
 21 22  1  0
 22 23  2  0
 23 24  1  0
 19 25  1  0
 25 26  1  0
 26 27  1  0
 13  4  1  0
 24 15  1  0
 12  7  1  0
 23 18  1  0
M  END
>  <AAScore>  (1) 
-6.98441388689669

>  <RootName>  (1) 
./4ZLY/04_DeltaGEst/trajectory_02/rank_01/lead_0436

$$$$
