confid_9
     RDKit          3D

 28 31  0  0  0  0  0  0  0  0999 V2000
   24.5700   26.8800   35.5900 N   0  0  0  0  0  0  0  0  0  0  0  0
   25.5000   26.4000   34.6900 C   0  0  0  0  0  0  0  0  0  0  0  0
   25.1700   25.5200   33.9100 O   0  0  0  0  0  0  0  0  0  0  0  0
   26.8400   27.0200   34.7400 C   0  0  0  0  0  0  0  0  0  0  0  0
   27.3800   27.2800   35.9400 N   0  0  0  0  0  0  0  0  0  0  0  0
   28.6200   27.7400   36.0300 N   0  0  0  0  0  0  0  0  0  0  0  0
   29.3800   28.0000   34.9600 C   0  0  0  0  0  0  0  0  0  0  0  0
   30.6700   28.5000   35.1300 C   0  0  0  0  0  0  0  0  0  0  0  0
   31.5400   28.6100   34.0300 C   0  0  0  0  0  0  0  0  0  0  0  0
   31.0900   28.2200   32.7700 C   0  0  0  0  0  0  0  0  0  0  0  0
   29.8000   27.7000   32.6000 C   0  0  0  0  0  0  0  0  0  0  0  0
   28.9600   27.5500   33.7100 C   0  0  0  0  0  0  0  0  0  0  0  0
   27.6600   27.0300   33.5900 C   0  0  0  0  0  0  0  0  0  0  0  0
   27.1600   26.7400   32.3400 N   0  0  0  0  0  0  0  0  0  0  0  0
   23.3032   26.2621   35.8771 C   0  0  0  0  0  0  0  0  0  0  0  0
   22.9862   25.0400   35.3746 N   0  0  0  0  0  0  0  0  0  0  0  0
   21.7968   24.4486   35.6505 C   0  0  0  0  0  0  0  0  0  0  0  0
   20.8497   25.1028   36.4588 C   0  0  0  0  0  0  0  0  0  0  0  0
   19.5201   24.4701   36.8585 C   0  0  2  0  0  0  0  0  0  0  0  0
   19.5761   23.9986   38.3338 C   0  0  0  0  0  0  0  0  0  0  0  0
   20.3636   24.9093   39.2000 N   0  0  0  0  0  0  0  0  0  0  0  0
   20.3819   24.3861   40.5759 C   0  0  0  0  0  0  0  0  0  0  0  0
   19.8353   26.2943   39.1837 C   0  0  0  0  0  0  0  0  0  0  0  0
   20.3020   27.1040   37.9453 C   0  0  0  0  0  0  0  0  0  0  0  0
   21.2185   26.3506   37.0083 C   0  0  0  0  0  0  0  0  0  0  0  0
   22.4239   26.8954   36.6948 N   0  0  0  0  0  0  0  0  0  0  0  0
   19.0557   23.3389   35.9074 C   0  0  0  0  0  0  0  0  0  0  0  0
   17.5978   22.9372   36.1373 C   0  0  0  0  0  0  0  0  0  0  0  0
  1  2  1  0
  2  3  2  0
  2  4  1  0
  4  5  2  0
  5  6  1  0
  6  7  2  0
  7  8  1  0
  8  9  2  0
  9 10  1  0
 10 11  2  0
 11 12  1  0
 12 13  2  0
 13 14  1  0
  1 15  1  0
 15 16  2  0
 16 17  1  0
 17 18  2  0
 18 19  1  0
 19 20  1  0
 20 21  1  0
 21 22  1  0
 21 23  1  0
 23 24  1  0
 24 25  1  0
 25 26  2  0
 19 27  1  6
 27 28  1  0
 13  4  1  0
 26 15  1  0
 12  7  1  0
 25 18  1  0
M  END
>  <AAScore>  (1) 
35947.72370529105

>  <RootName>  (1) 
./4ZLY/04_DeltaGEst/trajectory_05/rank_00/lead_0409

$$$$
