confid_6
     RDKit          3D

 28 31  0  0  0  0  0  0  0  0999 V2000
   24.2000   26.2400   35.6900 N   0  0  0  0  0  0  0  0  0  0  0  0
   24.8500   26.2800   34.4800 C   0  0  0  0  0  0  0  0  0  0  0  0
   24.3100   25.7400   33.5400 O   0  0  0  0  0  0  0  0  0  0  0  0
   26.1800   26.9700   34.4700 C   0  0  0  0  0  0  0  0  0  0  0  0
   26.6500   27.6000   35.5500 N   0  0  0  0  0  0  0  0  0  0  0  0
   27.7900   28.2700   35.6200 N   0  0  0  0  0  0  0  0  0  0  0  0
   28.5400   28.3000   34.5100 C   0  0  0  0  0  0  0  0  0  0  0  0
   29.7700   28.9400   34.5600 C   0  0  0  0  0  0  0  0  0  0  0  0
   30.7000   28.8900   33.5000 C   0  0  0  0  0  0  0  0  0  0  0  0
   30.3700   28.1400   32.3700 C   0  0  0  0  0  0  0  0  0  0  0  0
   29.1200   27.5200   32.2800 C   0  0  0  0  0  0  0  0  0  0  0  0
   28.2100   27.6100   33.3300 C   0  0  0  0  0  0  0  0  0  0  0  0
   26.9700   26.9700   33.3100 C   0  0  0  0  0  0  0  0  0  0  0  0
   26.5300   26.2400   32.2200 N   0  0  0  0  0  0  0  0  0  0  0  0
   22.7763   26.0757   35.8414 C   0  0  0  0  0  0  0  0  0  0  0  0
   21.9447   26.2085   34.7767 N   0  0  0  0  0  0  0  0  0  0  0  0
   20.6007   26.0710   34.8890 C   0  0  0  0  0  0  0  0  0  0  0  0
   20.0029   25.7799   36.1294 C   0  0  0  0  0  0  0  0  0  0  0  0
   18.4899   25.7205   36.1685 C   0  0  0  0  0  0  0  0  0  0  0  0
   18.0082   24.5484   36.9033 N   0  0  0  0  0  0  0  0  0  0  0  0
   18.0553   24.5563   38.3376 C   0  0  0  0  0  0  0  0  0  0  0  0
   17.3910   23.7159   39.0037 O   0  0  0  0  0  0  0  0  0  0  0  0
   18.9393   25.5305   39.0496 C   0  0  0  0  0  0  0  0  0  0  0  0
   20.4005   25.2757   38.6819 C   0  0  0  0  0  0  0  0  0  0  0  0
   20.8464   25.6639   37.2763 C   0  0  0  0  0  0  0  0  0  0  0  0
   22.2356   25.8047   37.1012 C   0  0  0  0  0  0  0  0  0  0  0  0
   17.3935   23.4290   36.1791 C   0  0  0  0  0  0  0  0  0  0  0  0
   15.8851   23.6251   36.0718 C   0  0  0  0  0  0  0  0  0  0  0  0
  1  2  1  0
  2  3  2  0
  2  4  1  0
  4  5  2  0
  5  6  1  0
  6  7  2  0
  7  8  1  0
  8  9  2  0
  9 10  1  0
 10 11  2  0
 11 12  1  0
 12 13  2  0
 13 14  1  0
  1 15  1  0
 15 16  2  0
 16 17  1  0
 17 18  2  0
 18 19  1  0
 19 20  1  0
 20 21  1  0
 21 22  2  0
 21 23  1  0
 23 24  1  0
 24 25  1  0
 25 26  2  0
 20 27  1  0
 27 28  1  0
 13  4  1  0
 26 15  1  0
 12  7  1  0
 25 18  1  0
M  END
>  <AAScore>  (1) 
143.38808707149116

>  <RootName>  (1) 
./4ZLY/04_DeltaGEst/trajectory_04/rank_00/lead_0193

$$$$
