confid_13
     RDKit          3D

 28 31  0  0  0  0  0  0  0  0999 V2000
   25.3300   26.2600   34.7600 N   0  0  0  0  0  0  0  0  0  0  0  0
   26.1200   25.9200   33.6900 C   0  0  0  0  0  0  0  0  0  0  0  0
   25.6300   25.1100   32.9400 O   0  0  0  0  0  0  0  0  0  0  0  0
   27.5200   26.3800   33.4600 C   0  0  0  0  0  0  0  0  0  0  0  0
   28.1600   26.6300   34.6100 N   0  0  0  0  0  0  0  0  0  0  0  0
   29.4800   26.8500   34.5700 N   0  0  0  0  0  0  0  0  0  0  0  0
   30.1900   26.7800   33.4400 C   0  0  0  0  0  0  0  0  0  0  0  0
   31.5600   27.0500   33.5000 C   0  0  0  0  0  0  0  0  0  0  0  0
   32.2700   27.2400   32.3100 C   0  0  0  0  0  0  0  0  0  0  0  0
   31.6100   27.2500   31.0800 C   0  0  0  0  0  0  0  0  0  0  0  0
   30.2700   26.8700   31.0600 C   0  0  0  0  0  0  0  0  0  0  0  0
   29.5100   26.6900   32.2300 C   0  0  0  0  0  0  0  0  0  0  0  0
   28.1400   26.4100   32.2000 C   0  0  0  0  0  0  0  0  0  0  0  0
   27.4300   26.1300   31.0500 N   0  0  0  0  0  0  0  0  0  0  0  0
   24.2684   25.4523   35.3069 C   0  0  0  0  0  0  0  0  0  0  0  0
   24.0827   24.1660   34.8997 N   0  0  0  0  0  0  0  0  0  0  0  0
   23.1008   23.3842   35.4214 C   0  0  0  0  0  0  0  0  0  0  0  0
   22.9777   21.9508   34.9809 C   0  0  0  0  0  0  0  0  0  0  0  0
   21.6441   21.3986   35.2990 N   0  0  0  0  0  0  0  0  0  0  0  0
   21.5591   19.9676   34.9229 C   0  0  0  0  0  0  0  0  0  0  0  0
   20.2183   19.6664   34.2398 C   0  0  2  0  0  0  0  0  0  0  0  0
   20.0527   20.4560   32.9416 C   0  0  0  0  0  0  0  0  0  0  0  0
   19.1672   19.9559   35.0923 F   0  0  0  0  0  0  0  0  0  0  0  0
   21.3377   21.5988   36.7302 C   0  0  0  0  0  0  0  0  0  0  0  0
   21.1572   23.0920   37.0174 C   0  0  0  0  0  0  0  0  0  0  0  0
   22.2813   23.9028   36.4381 C   0  0  0  0  0  0  0  0  0  0  0  0
   22.4626   25.1877   36.8432 N   0  0  0  0  0  0  0  0  0  0  0  0
   23.4361   25.9695   36.3080 C   0  0  0  0  0  0  0  0  0  0  0  0
  1  2  1  0
  2  3  2  0
  2  4  1  0
  4  5  2  0
  5  6  1  0
  6  7  2  0
  7  8  1  0
  8  9  2  0
  9 10  1  0
 10 11  2  0
 11 12  1  0
 12 13  2  0
 13 14  1  0
  1 15  1  0
 15 16  2  0
 16 17  1  0
 17 18  1  0
 18 19  1  0
 19 20  1  0
 20 21  1  0
 21 22  1  6
 21 23  1  0
 19 24  1  0
 24 25  1  0
 25 26  1  0
 26 27  1  0
 27 28  2  0
 13  4  1  0
 28 15  1  0
 12  7  1  0
 26 17  2  0
M  END
>  <AAScore>  (1) 
2743.472167573593

>  <RootName>  (1) 
./4ZLY/04_DeltaGEst/trajectory_03/rank_00/lead_0140

$$$$
