confid_14
     RDKit          3D

 29 32  0  0  0  0  0  0  0  0999 V2000
   24.5500   26.3900   36.2500 N   0  0  0  0  0  0  0  0  0  0  0  0
   25.6000   26.1300   35.4000 C   0  0  0  0  0  0  0  0  0  0  0  0
   25.4300   25.4300   34.4200 O   0  0  0  0  0  0  0  0  0  0  0  0
   26.9800   26.6300   35.7100 C   0  0  0  0  0  0  0  0  0  0  0  0
   27.3200   26.8200   36.9800 N   0  0  0  0  0  0  0  0  0  0  0  0
   28.4700   27.4000   37.3100 N   0  0  0  0  0  0  0  0  0  0  0  0
   29.4000   27.6300   36.3700 C   0  0  0  0  0  0  0  0  0  0  0  0
   30.6600   28.0500   36.8000 C   0  0  0  0  0  0  0  0  0  0  0  0
   31.5700   28.3600   35.7800 C   0  0  0  0  0  0  0  0  0  0  0  0
   31.3700   28.1000   34.4300 C   0  0  0  0  0  0  0  0  0  0  0  0
   30.1200   27.5900   34.0500 C   0  0  0  0  0  0  0  0  0  0  0  0
   29.1500   27.3400   35.0300 C   0  0  0  0  0  0  0  0  0  0  0  0
   27.8800   26.8900   34.6600 C   0  0  0  0  0  0  0  0  0  0  0  0
   27.4800   26.6100   33.3700 N   0  0  0  0  0  0  0  0  0  0  0  0
   30.9479   28.3517   38.1726 N   0  0  0  0  0  0  0  0  0  0  0  0
   31.9545   27.5556   38.8872 C   0  0  0  0  0  0  0  0  0  0  0  0
   32.0494   27.9750   40.3565 C   0  0  0  0  0  0  0  0  0  0  0  0
   30.7006   28.1837   40.9007 N   0  0  0  0  0  0  0  0  0  0  0  0
   30.3022   27.5928   42.1464 C   0  0  0  0  0  0  0  0  0  0  0  0
   29.7519   28.3085   43.0252 O   0  0  0  0  0  0  0  0  0  0  0  0
   30.3890   26.1082   42.3573 C   0  0  0  0  0  0  0  0  0  0  0  0
   29.0949   25.4615   41.9435 C   0  0  0  0  0  0  0  0  0  0  0  0
   28.1159   25.1648   42.9038 C   0  0  0  0  0  0  0  0  0  0  0  0
   26.9135   24.5638   42.5217 C   0  0  0  0  0  0  0  0  0  0  0  0
   26.6715   24.2705   41.1782 C   0  0  0  0  0  0  0  0  0  0  0  0
   27.6300   24.5882   40.2123 C   0  0  0  0  0  0  0  0  0  0  0  0
   28.8347   25.1935   40.5885 C   0  0  0  0  0  0  0  0  0  0  0  0
   29.7455   29.0509   40.1952 C   0  0  0  0  0  0  0  0  0  0  0  0
   30.2914   29.4882   38.8309 C   0  0  0  0  0  0  0  0  0  0  0  0
  1  2  1  0
  2  3  2  0
  2  4  1  0
  4  5  2  0
  5  6  1  0
  6  7  2  0
  7  8  1  0
  8  9  2  0
  9 10  1  0
 10 11  2  0
 11 12  1  0
 12 13  2  0
 13 14  1  0
  8 15  1  0
 15 16  1  0
 16 17  1  0
 17 18  1  0
 18 19  1  0
 19 20  2  0
 19 21  1  0
 21 22  1  0
 22 23  2  0
 23 24  1  0
 24 25  2  0
 25 26  1  0
 26 27  2  0
 18 28  1  0
 28 29  1  0
 13  4  1  0
 29 15  1  0
 12  7  1  0
 27 22  1  0
M  END
>  <AAScore>  (1) 
585.0308951421933

>  <RootName>  (1) 
./4ZLY/04_DeltaGEst/trajectory_01/rank_01/lead_0499

$$$$
