confid_3
     RDKit          3D

 29 32  0  0  0  0  0  0  0  0999 V2000
   24.2000   26.2400   35.6900 N   0  0  0  0  0  0  0  0  0  0  0  0
   24.8500   26.2800   34.4800 C   0  0  0  0  0  0  0  0  0  0  0  0
   24.3100   25.7400   33.5400 O   0  0  0  0  0  0  0  0  0  0  0  0
   26.1800   26.9700   34.4700 C   0  0  0  0  0  0  0  0  0  0  0  0
   26.6500   27.6000   35.5500 N   0  0  0  0  0  0  0  0  0  0  0  0
   27.7900   28.2700   35.6200 N   0  0  0  0  0  0  0  0  0  0  0  0
   28.5400   28.3000   34.5100 C   0  0  0  0  0  0  0  0  0  0  0  0
   29.7700   28.9400   34.5600 C   0  0  0  0  0  0  0  0  0  0  0  0
   30.7000   28.8900   33.5000 C   0  0  0  0  0  0  0  0  0  0  0  0
   30.3700   28.1400   32.3700 C   0  0  0  0  0  0  0  0  0  0  0  0
   29.1200   27.5200   32.2800 C   0  0  0  0  0  0  0  0  0  0  0  0
   28.2100   27.6100   33.3300 C   0  0  0  0  0  0  0  0  0  0  0  0
   26.9700   26.9700   33.3100 C   0  0  0  0  0  0  0  0  0  0  0  0
   26.5300   26.2400   32.2200 N   0  0  0  0  0  0  0  0  0  0  0  0
   23.1329   25.3307   36.0055 C   0  0  0  0  0  0  0  0  0  0  0  0
   22.9521   24.2091   35.3843 N   0  0  0  0  0  0  0  0  0  0  0  0
   21.8575   23.5592   36.0137 C   0  0  0  0  0  0  0  0  0  0  0  0
   21.3772   24.2814   37.0192 C   0  0  0  0  0  0  0  0  0  0  0  0
   20.2103   23.8894   37.8820 C   0  0  0  0  0  0  0  0  0  0  0  0
   19.1678   24.9359   37.8469 N   0  0  0  0  0  0  0  0  0  0  0  0
   18.5940   25.1612   36.4975 C   0  0  0  0  0  0  0  0  0  0  0  0
   18.9089   26.5880   36.0272 C   0  0  0  0  0  0  0  0  0  0  0  0
   20.3978   26.8328   35.7037 C   0  0  0  0  0  0  0  0  0  0  0  0
   21.3250   26.8318   36.9493 C   0  0  0  0  0  0  0  0  0  0  0  0
   22.1684   25.5458   37.1350 C   0  0  2  0  0  0  0  0  0  0  0  0
   18.1549   24.8166   38.9261 C   0  0  0  0  0  0  0  0  0  0  0  0
   17.5276   23.4176   39.0692 C   0  0  0  0  0  0  0  0  0  0  0  0
   17.0277   22.9669   37.8241 O   0  0  0  0  0  0  0  0  0  0  0  0
   16.4621   21.6851   37.9819 C   0  0  0  0  0  0  0  0  0  0  0  0
  1  2  1  0
  2  3  2  0
  2  4  1  0
  4  5  2  0
  5  6  1  0
  6  7  2  0
  7  8  1  0
  8  9  2  0
  9 10  1  0
 10 11  2  0
 11 12  1  0
 12 13  2  0
 13 14  1  0
  1 15  1  0
 15 16  2  0
 16 17  1  0
 17 18  2  0
 18 19  1  0
 19 20  1  0
 20 21  1  0
 21 22  1  0
 22 23  1  0
 23 24  1  0
 25 24  1  6
 20 26  1  0
 26 27  1  0
 27 28  1  0
 28 29  1  0
 13  4  1  0
 25 15  1  0
 12  7  1  0
 25 18  1  0
M  END
>  <AAScore>  (1) 
1985.653655945728

>  <RootName>  (1) 
./4ZLY/04_DeltaGEst/trajectory_04/rank_00/lead_0007

$$$$
