confid_9
     RDKit          3D

 28 31  0  0  0  0  0  0  0  0999 V2000
   24.6900   26.1200   35.5300 N   0  0  0  0  0  0  0  0  0  0  0  0
   25.6600   25.6700   34.6600 C   0  0  0  0  0  0  0  0  0  0  0  0
   25.2400   25.0100   33.7200 O   0  0  0  0  0  0  0  0  0  0  0  0
   27.0300   26.2200   34.8800 C   0  0  0  0  0  0  0  0  0  0  0  0
   27.3500   26.7300   36.0700 N   0  0  0  0  0  0  0  0  0  0  0  0
   28.5700   27.1800   36.3300 N   0  0  0  0  0  0  0  0  0  0  0  0
   29.5300   27.1100   35.3900 C   0  0  0  0  0  0  0  0  0  0  0  0
   30.8300   27.5700   35.6500 C   0  0  0  0  0  0  0  0  0  0  0  0
   31.8500   27.5400   34.6900 C   0  0  0  0  0  0  0  0  0  0  0  0
   31.5100   27.1200   33.4000 C   0  0  0  0  0  0  0  0  0  0  0  0
   30.2200   26.6300   33.1100 C   0  0  0  0  0  0  0  0  0  0  0  0
   29.2400   26.6600   34.1000 C   0  0  0  0  0  0  0  0  0  0  0  0
   27.9300   26.2600   33.8100 C   0  0  0  0  0  0  0  0  0  0  0  0
   27.5200   25.7100   32.6100 N   0  0  0  0  0  0  0  0  0  0  0  0
   23.5739   25.3111   35.9581 C   0  0  0  0  0  0  0  0  0  0  0  0
   23.4995   24.0061   35.5785 N   0  0  0  0  0  0  0  0  0  0  0  0
   22.4924   23.1893   35.9725 C   0  0  0  0  0  0  0  0  0  0  0  0
   21.4835   23.6685   36.8145 C   0  0  0  0  0  0  0  0  0  0  0  0
   20.3297   22.7623   37.1783 C   0  0  0  0  0  0  0  0  0  0  0  0
   19.6176   23.2021   38.3933 N   0  0  0  0  0  0  0  0  0  0  0  0
   19.2488   24.6298   38.3075 C   0  0  0  0  0  0  0  0  0  0  0  0
   20.4731   25.5501   38.1837 C   0  0  0  0  0  0  0  0  0  0  0  0
   21.5156   25.0154   37.2269 C   0  0  0  0  0  0  0  0  0  0  0  0
   22.5769   25.8426   36.8047 C   0  0  0  0  0  0  0  0  0  0  0  0
   22.6380   27.2083   37.2434 N   0  0  0  0  0  0  0  0  0  0  0  0
   23.3711   27.5512   38.4607 C   0  0  0  0  0  0  0  0  0  0  0  0
   22.1160   28.2721   36.3896 C   0  0  0  0  0  0  0  0  0  0  0  0
   20.3649   22.8776   39.6222 C   0  0  0  0  0  0  0  0  0  0  0  0
  1  2  1  0
  2  3  2  0
  2  4  1  0
  4  5  2  0
  5  6  1  0
  6  7  2  0
  7  8  1  0
  8  9  2  0
  9 10  1  0
 10 11  2  0
 11 12  1  0
 12 13  2  0
 13 14  1  0
  1 15  1  0
 15 16  2  0
 16 17  1  0
 17 18  2  0
 18 19  1  0
 19 20  1  0
 20 21  1  0
 21 22  1  0
 22 23  1  0
 23 24  2  0
 24 25  1  0
 25 26  1  0
 25 27  1  0
 20 28  1  0
 13  4  1  0
 24 15  1  0
 12  7  1  0
 23 18  1  0
M  END
>  <AAScore>  (1) 
682.8687968233768

>  <RootName>  (1) 
./4ZLY/04_DeltaGEst/trajectory_02/rank_00/lead_0140

$$$$
