confid_9
     RDKit          3D

 28 31  0  0  0  0  0  0  0  0999 V2000
   24.2000   26.2400   35.6900 N   0  0  0  0  0  0  0  0  0  0  0  0
   24.8500   26.2800   34.4800 C   0  0  0  0  0  0  0  0  0  0  0  0
   24.3100   25.7400   33.5400 O   0  0  0  0  0  0  0  0  0  0  0  0
   26.1800   26.9700   34.4700 C   0  0  0  0  0  0  0  0  0  0  0  0
   26.6500   27.6000   35.5500 N   0  0  0  0  0  0  0  0  0  0  0  0
   27.7900   28.2700   35.6200 N   0  0  0  0  0  0  0  0  0  0  0  0
   28.5400   28.3000   34.5100 C   0  0  0  0  0  0  0  0  0  0  0  0
   29.7700   28.9400   34.5600 C   0  0  0  0  0  0  0  0  0  0  0  0
   30.7000   28.8900   33.5000 C   0  0  0  0  0  0  0  0  0  0  0  0
   30.3700   28.1400   32.3700 C   0  0  0  0  0  0  0  0  0  0  0  0
   29.1200   27.5200   32.2800 C   0  0  0  0  0  0  0  0  0  0  0  0
   28.2100   27.6100   33.3300 C   0  0  0  0  0  0  0  0  0  0  0  0
   26.9700   26.9700   33.3100 C   0  0  0  0  0  0  0  0  0  0  0  0
   26.5300   26.2400   32.2200 N   0  0  0  0  0  0  0  0  0  0  0  0
   22.7749   26.0895   35.8394 C   0  0  0  0  0  0  0  0  0  0  0  0
   21.9461   26.2025   34.7673 N   0  0  0  0  0  0  0  0  0  0  0  0
   20.5909   26.0853   34.8522 C   0  0  0  0  0  0  0  0  0  0  0  0
   19.8232   26.2728   33.5711 C   0  0  0  0  0  0  0  0  0  0  0  0
   19.4953   24.9333   32.8896 C   0  0  0  0  0  0  0  0  0  0  0  0
   18.1091   24.4977   33.1589 N   0  0  0  0  0  0  0  0  0  0  0  0
   17.7607   23.3854   32.2572 C   0  0  0  0  0  0  0  0  0  0  0  0
   17.9293   24.0837   34.5670 C   0  0  0  0  0  0  0  0  0  0  0  0
   17.5891   25.2984   35.4431 C   0  0  0  0  0  0  0  0  0  0  0  0
   18.6313   25.6071   36.3661 O   0  0  0  0  0  0  0  0  0  0  0  0
   20.0021   25.8105   36.1183 C   0  0  0  0  0  0  0  0  0  0  0  0
   20.8456   25.7283   37.2346 C   0  0  0  0  0  0  0  0  0  0  0  0
   20.3201   25.4891   38.4625 F   0  0  0  0  0  0  0  0  0  0  0  0
   22.2252   25.8658   37.1017 C   0  0  0  0  0  0  0  0  0  0  0  0
  1  2  1  0
  2  3  2  0
  2  4  1  0
  4  5  2  0
  5  6  1  0
  6  7  2  0
  7  8  1  0
  8  9  2  0
  9 10  1  0
 10 11  2  0
 11 12  1  0
 12 13  2  0
 13 14  1  0
  1 15  1  0
 15 16  2  0
 16 17  1  0
 17 18  1  0
 18 19  1  0
 19 20  1  0
 20 21  1  0
 20 22  1  0
 22 23  1  0
 23 24  1  0
 24 25  1  0
 25 26  1  0
 26 27  1  0
 26 28  2  0
 13  4  1  0
 28 15  1  0
 12  7  1  0
 25 17  2  0
M  END
>  <AAScore>  (1) 
347.0185412161124

>  <RootName>  (1) 
./4ZLY/04_DeltaGEst/trajectory_04/rank_00/lead_0136

$$$$
