confid_3
     RDKit          3D

 31 35  0  0  0  0  0  0  0  0999 V2000
   24.6900   26.1200   35.5300 N   0  0  0  0  0  0  0  0  0  0  0  0
   25.6600   25.6700   34.6600 C   0  0  0  0  0  0  0  0  0  0  0  0
   25.2400   25.0100   33.7200 O   0  0  0  0  0  0  0  0  0  0  0  0
   27.0300   26.2200   34.8800 C   0  0  0  0  0  0  0  0  0  0  0  0
   27.3500   26.7300   36.0700 N   0  0  0  0  0  0  0  0  0  0  0  0
   28.5700   27.1800   36.3300 N   0  0  0  0  0  0  0  0  0  0  0  0
   29.5300   27.1100   35.3900 C   0  0  0  0  0  0  0  0  0  0  0  0
   30.8300   27.5700   35.6500 C   0  0  0  0  0  0  0  0  0  0  0  0
   31.8500   27.5400   34.6900 C   0  0  0  0  0  0  0  0  0  0  0  0
   31.5100   27.1200   33.4000 C   0  0  0  0  0  0  0  0  0  0  0  0
   30.2200   26.6300   33.1100 C   0  0  0  0  0  0  0  0  0  0  0  0
   29.2400   26.6600   34.1000 C   0  0  0  0  0  0  0  0  0  0  0  0
   27.9300   26.2600   33.8100 C   0  0  0  0  0  0  0  0  0  0  0  0
   27.5200   25.7100   32.6100 N   0  0  0  0  0  0  0  0  0  0  0  0
   23.2816   25.7853   35.5678 C   0  0  0  0  0  0  0  0  0  0  0  0
   22.5717   26.1190   36.5995 N   0  0  0  0  0  0  0  0  0  0  0  0
   21.2194   25.7889   36.3380 C   0  0  0  0  0  0  0  0  0  0  0  0
   21.0879   25.2668   35.1337 C   0  0  0  0  0  0  0  0  0  0  0  0
   19.7840   25.0569   34.4200 C   0  0  0  0  0  0  0  0  0  0  0  0
   19.9581   25.0908   32.9572 N   0  0  0  0  0  0  0  0  0  0  0  0
   18.8348   24.6937   32.1061 C   0  0  0  0  0  0  0  0  0  0  0  0
   21.1739   25.5788   32.3416 C   0  0  0  0  0  0  0  0  0  0  0  0
   21.2545   25.6776   31.0859 O   0  0  0  0  0  0  0  0  0  0  0  0
   22.3515   25.9990   33.1848 C   0  0  0  0  0  0  0  0  0  0  0  0
   22.4256   25.1487   34.4727 C   0  0  1  0  0  0  0  0  0  0  0  0
   22.7425   23.6435   34.1892 C   0  0  0  0  0  0  0  0  0  0  0  0
   23.4091   22.9858   35.3439 N   0  0  0  0  0  0  0  0  0  0  0  0
   22.4333   22.3668   36.2573 C   0  0  0  0  0  0  0  0  0  0  0  0
   22.2899   20.8962   35.8760 C   0  0  0  0  0  0  0  0  0  0  0  0
   23.4070   20.6228   34.8868 C   0  0  0  0  0  0  0  0  0  0  0  0
   24.2676   21.8725   34.9171 C   0  0  0  0  0  0  0  0  0  0  0  0
  1  2  1  0
  2  3  2  0
  2  4  1  0
  4  5  2  0
  5  6  1  0
  6  7  2  0
  7  8  1  0
  8  9  2  0
  9 10  1  0
 10 11  2  0
 11 12  1  0
 12 13  2  0
 13 14  1  0
  1 15  1  0
 15 16  2  0
 16 17  1  0
 17 18  2  0
 18 19  1  0
 19 20  1  0
 20 21  1  0
 20 22  1  0
 22 23  2  0
 22 24  1  0
 24 25  1  0
 25 26  1  6
 26 27  1  0
 27 28  1  0
 28 29  1  0
 29 30  1  0
 30 31  1  0
 13  4  1  0
 25 15  1  0
 31 27  1  0
 12  7  1  0
 25 18  1  0
M  END
>  <AAScore>  (1) 
6766.523277280753

>  <RootName>  (1) 
./4ZLY/04_DeltaGEst/trajectory_02/rank_00/lead_0249

$$$$
