confid_4
     RDKit          3D

 30 33  0  0  0  0  0  0  0  0999 V2000
   24.5700   26.8800   35.5900 N   0  0  0  0  0  0  0  0  0  0  0  0
   25.5000   26.4000   34.6900 C   0  0  0  0  0  0  0  0  0  0  0  0
   25.1700   25.5200   33.9100 O   0  0  0  0  0  0  0  0  0  0  0  0
   26.8400   27.0200   34.7400 C   0  0  0  0  0  0  0  0  0  0  0  0
   27.3800   27.2800   35.9400 N   0  0  0  0  0  0  0  0  0  0  0  0
   28.6200   27.7400   36.0300 N   0  0  0  0  0  0  0  0  0  0  0  0
   29.3800   28.0000   34.9600 C   0  0  0  0  0  0  0  0  0  0  0  0
   30.6700   28.5000   35.1300 C   0  0  0  0  0  0  0  0  0  0  0  0
   31.5400   28.6100   34.0300 C   0  0  0  0  0  0  0  0  0  0  0  0
   31.0900   28.2200   32.7700 C   0  0  0  0  0  0  0  0  0  0  0  0
   29.8000   27.7000   32.6000 C   0  0  0  0  0  0  0  0  0  0  0  0
   28.9600   27.5500   33.7100 C   0  0  0  0  0  0  0  0  0  0  0  0
   27.6600   27.0300   33.5900 C   0  0  0  0  0  0  0  0  0  0  0  0
   27.1600   26.7400   32.3400 N   0  0  0  0  0  0  0  0  0  0  0  0
   23.1421   26.8054   35.4292 C   0  0  0  0  0  0  0  0  0  0  0  0
   22.4534   27.8785   35.7002 N   0  0  0  0  0  0  0  0  0  0  0  0
   21.0262   27.9729   35.7292 C   0  0  0  0  0  0  0  0  0  0  0  0
   20.3467   28.7813   34.8936 C   0  0  0  0  0  0  0  0  0  0  0  0
   18.8303   28.6831   34.9123 C   0  0  0  0  0  0  0  0  0  0  0  0
   18.1482   29.9855   34.9226 N   0  0  0  0  0  0  0  0  0  0  0  0
   18.4243   30.7773   36.1339 C   0  0  0  0  0  0  0  0  0  0  0  0
   18.3007   30.7335   33.6619 C   0  0  0  0  0  0  0  0  0  0  0  0
   19.6156   31.4594   33.5546 C   0  0  0  0  0  0  0  0  0  0  0  0
   20.7705   30.8914   33.6254 N   0  0  0  0  0  0  0  0  0  0  0  0
   21.0710   29.4736   33.7338 C   0  0  2  0  0  0  0  0  0  0  0  0
   20.8709   28.7436   32.3814 C   0  0  0  0  0  0  0  0  0  0  0  0
   21.6550   27.4246   32.3222 C   0  0  0  0  0  0  0  0  0  0  0  0
   21.1226   26.5034   33.2543 O   0  0  0  0  0  0  0  0  0  0  0  0
   22.0449   25.4690   33.5417 C   0  0  0  0  0  0  0  0  0  0  0  0
   22.4627   25.5051   35.0237 C   0  0  0  0  0  0  0  0  0  0  0  0
  1  2  1  0
  2  3  2  0
  2  4  1  0
  4  5  2  0
  5  6  1  0
  6  7  2  0
  7  8  1  0
  8  9  2  0
  9 10  1  0
 10 11  2  0
 11 12  1  0
 12 13  2  0
 13 14  1  0
  1 15  1  0
 15 16  2  0
 16 17  1  0
 17 18  2  0
 18 19  1  0
 19 20  1  0
 20 21  1  0
 20 22  1  0
 22 23  1  0
 23 24  2  0
 24 25  1  0
 25 26  1  6
 26 27  1  0
 27 28  1  0
 28 29  1  0
 29 30  1  0
 13  4  1  0
 30 15  1  0
 12  7  1  0
 25 18  1  0
M  END
>  <AAScore>  (1) 
4472.434656845369

>  <RootName>  (1) 
./4ZLY/04_DeltaGEst/trajectory_05/rank_00/lead_0291

$$$$
