confid_16
     RDKit          3D

 26 27  0  0  0  0  0  0  0  0999 V2000
   24.5700   26.8800   35.5900 N   0  0  0  0  0  0  0  0  0  0  0  0
   25.5000   26.4000   34.6900 C   0  0  0  0  0  0  0  0  0  0  0  0
   25.1700   25.5200   33.9100 O   0  0  0  0  0  0  0  0  0  0  0  0
   26.8400   27.0200   34.7400 C   0  0  0  0  0  0  0  0  0  0  0  0
   27.3800   27.2800   35.9400 N   0  0  0  0  0  0  0  0  0  0  0  0
   28.6200   27.7400   36.0300 N   0  0  0  0  0  0  0  0  0  0  0  0
   29.3800   28.0000   34.9600 C   0  0  0  0  0  0  0  0  0  0  0  0
   30.6700   28.5000   35.1300 C   0  0  0  0  0  0  0  0  0  0  0  0
   31.5400   28.6100   34.0300 C   0  0  0  0  0  0  0  0  0  0  0  0
   31.0900   28.2200   32.7700 C   0  0  0  0  0  0  0  0  0  0  0  0
   29.8000   27.7000   32.6000 C   0  0  0  0  0  0  0  0  0  0  0  0
   28.9600   27.5500   33.7100 C   0  0  0  0  0  0  0  0  0  0  0  0
   27.6600   27.0300   33.5900 C   0  0  0  0  0  0  0  0  0  0  0  0
   27.1600   26.7400   32.3400 N   0  0  0  0  0  0  0  0  0  0  0  0
   33.1844   29.2251   34.2287 S   0  0  0  0  0  6  0  0  0  0  0  0
   33.5165   29.2631   35.6955 O   0  0  0  0  0  0  0  0  0  0  0  0
   34.1132   28.2464   33.5651 O   0  0  0  0  0  0  0  0  0  0  0  0
   33.3734   30.8765   33.4813 C   0  0  1  0  0  0  0  0  0  0  0  0
   34.8391   31.0233   32.9336 C   0  0  0  0  0  0  0  0  0  0  0  0
   35.9835   30.8916   33.9868 C   0  0  0  0  0  0  0  0  0  0  0  0
   36.5256   32.2658   34.4129 C   0  0  0  0  0  0  0  0  0  0  0  0
   37.1355   30.0408   33.4336 C   0  0  0  0  0  0  0  0  0  0  0  0
   32.4145   30.9192   32.4216 O   0  0  0  0  0  0  0  0  0  0  0  0
   32.5276   32.0308   31.5535 C   0  0  0  0  0  0  0  0  0  0  0  0
   33.0721   31.9749   34.5483 C   0  0  0  0  0  0  0  0  0  0  0  0
   31.5941   32.0880   34.9290 C   0  0  0  0  0  0  0  0  0  0  0  0
  1  2  1  0
  2  3  2  0
  2  4  1  0
  4  5  2  0
  5  6  1  0
  6  7  2  0
  7  8  1  0
  8  9  2  0
  9 10  1  0
 10 11  2  0
 11 12  1  0
 12 13  2  0
 13 14  1  0
  9 15  1  0
 15 16  2  0
 15 17  2  0
 15 18  1  0
 18 19  1  6
 19 20  1  0
 20 21  1  0
 20 22  1  0
 18 23  1  0
 23 24  1  0
 18 25  1  0
 25 26  1  0
 13  4  1  0
 12  7  1  0
M  END
>  <AAScore>  (1) 
-5.405484346947177

>  <RootName>  (1) 
./4ZLY/04_DeltaGEst/trajectory_05/rank_01/lead_0367

$$$$
