confid_15
     RDKit          3D

 30 33  0  0  0  0  0  0  0  0999 V2000
   24.4800   26.1000   36.1300 N   0  0  0  0  0  0  0  0  0  0  0  0
   25.2500   26.2500   34.9900 C   0  0  0  0  0  0  0  0  0  0  0  0
   24.7400   25.7600   33.9900 O   0  0  0  0  0  0  0  0  0  0  0  0
   26.5900   26.8900   34.9600 C   0  0  0  0  0  0  0  0  0  0  0  0
   27.0600   27.2400   36.1600 N   0  0  0  0  0  0  0  0  0  0  0  0
   28.3000   27.7100   36.2400 N   0  0  0  0  0  0  0  0  0  0  0  0
   29.0500   27.9600   35.1500 C   0  0  0  0  0  0  0  0  0  0  0  0
   30.3400   28.4900   35.2600 C   0  0  0  0  0  0  0  0  0  0  0  0
   31.1100   28.8200   34.1400 C   0  0  0  0  0  0  0  0  0  0  0  0
   30.5200   28.6700   32.8800 C   0  0  0  0  0  0  0  0  0  0  0  0
   29.2900   28.0200   32.7700 C   0  0  0  0  0  0  0  0  0  0  0  0
   28.5200   27.7100   33.8900 C   0  0  0  0  0  0  0  0  0  0  0  0
   27.2700   27.0800   33.7600 C   0  0  0  0  0  0  0  0  0  0  0  0
   26.7500   26.8800   32.4900 N   0  0  0  0  0  0  0  0  0  0  0  0
   23.3035   25.2803   36.2076 C   0  0  0  0  0  0  0  0  0  0  0  0
   23.3009   24.2982   37.0616 N   0  0  0  0  0  0  0  0  0  0  0  0
   22.2978   23.3120   37.3653 C   0  0  0  0  0  0  0  0  0  0  0  0
   20.9513   23.4709   37.4811 C   0  0  0  0  0  0  0  0  0  0  0  0
   20.1304   22.2147   37.7075 C   0  0  0  0  0  0  0  0  0  0  0  0
   18.8754   22.2953   36.9555 N   0  0  0  0  0  0  0  0  0  0  0  0
   18.3630   21.1252   36.2408 C   0  0  0  0  0  0  0  0  0  0  0  0
   18.1871   23.5533   36.9092 C   0  0  0  0  0  0  0  0  0  0  0  0
   17.0981   23.6712   36.2836 O   0  0  0  0  0  0  0  0  0  0  0  0
   18.7696   24.7255   37.6373 C   0  0  0  0  0  0  0  0  0  0  0  0
   20.2368   24.7428   37.5031 N   0  0  0  0  0  0  0  0  0  0  0  0
   20.8956   26.0428   37.6721 C   0  0  0  0  0  0  0  0  0  0  0  0
   21.2363   26.6476   36.3036 C   0  0  0  0  0  0  0  0  0  0  0  0
   21.9386   27.8266   36.4952 F   0  0  0  0  0  0  0  0  0  0  0  0
   22.0709   25.6890   35.4502 C   0  0  0  0  0  0  0  0  0  0  0  0
   20.0649   26.9458   35.6245 F   0  0  0  0  0  0  0  0  0  0  0  0
  1  2  1  0
  2  3  2  0
  2  4  1  0
  4  5  2  0
  5  6  1  0
  6  7  2  0
  7  8  1  0
  8  9  2  0
  9 10  1  0
 10 11  2  0
 11 12  1  0
 12 13  2  0
 13 14  1  0
  1 15  1  0
 15 16  2  0
 16 17  1  0
 17 18  2  0
 18 19  1  0
 19 20  1  0
 20 21  1  0
 20 22  1  0
 22 23  2  0
 22 24  1  0
 24 25  1  0
 25 26  1  0
 26 27  1  0
 27 28  1  0
 27 29  1  0
 27 30  1  0
 13  4  1  0
 29 15  1  0
 12  7  1  0
 25 18  1  0
M  END
>  <AAScore>  (1) 
1236.461963352127

>  <RootName>  (1) 
./4ZLY/04_DeltaGEst/trajectory_00/rank_00/lead_0108

$$$$
