confid_3
     RDKit          3D

 30 33  0  0  0  0  0  0  0  0999 V2000
   24.4800   26.1000   36.1300 N   0  0  0  0  0  0  0  0  0  0  0  0
   25.2500   26.2500   34.9900 C   0  0  0  0  0  0  0  0  0  0  0  0
   24.7400   25.7600   33.9900 O   0  0  0  0  0  0  0  0  0  0  0  0
   26.5900   26.8900   34.9600 C   0  0  0  0  0  0  0  0  0  0  0  0
   27.0600   27.2400   36.1600 N   0  0  0  0  0  0  0  0  0  0  0  0
   28.3000   27.7100   36.2400 N   0  0  0  0  0  0  0  0  0  0  0  0
   29.0500   27.9600   35.1500 C   0  0  0  0  0  0  0  0  0  0  0  0
   30.3400   28.4900   35.2600 C   0  0  0  0  0  0  0  0  0  0  0  0
   31.1100   28.8200   34.1400 C   0  0  0  0  0  0  0  0  0  0  0  0
   30.5200   28.6700   32.8800 C   0  0  0  0  0  0  0  0  0  0  0  0
   29.2900   28.0200   32.7700 C   0  0  0  0  0  0  0  0  0  0  0  0
   28.5200   27.7100   33.8900 C   0  0  0  0  0  0  0  0  0  0  0  0
   27.2700   27.0800   33.7600 C   0  0  0  0  0  0  0  0  0  0  0  0
   26.7500   26.8800   32.4900 N   0  0  0  0  0  0  0  0  0  0  0  0
   23.0420   25.9642   36.1681 C   0  0  0  0  0  0  0  0  0  0  0  0
   22.3503   26.0437   35.0651 N   0  0  0  0  0  0  0  0  0  0  0  0
   20.9248   25.9873   34.9931 C   0  0  0  0  0  0  0  0  0  0  0  0
   20.2755   25.0193   34.3225 C   0  0  0  0  0  0  0  0  0  0  0  0
   18.7850   25.1177   34.1435 C   0  0  0  0  0  0  0  0  0  0  0  0
   18.4557   24.9326   32.7282 N   0  0  0  0  0  0  0  0  0  0  0  0
   17.3157   25.6316   32.1306 C   0  0  0  0  0  0  0  0  0  0  0  0
   19.2288   24.0092   31.9407 C   0  0  0  0  0  0  0  0  0  0  0  0
   18.9657   23.8384   30.7191 O   0  0  0  0  0  0  0  0  0  0  0  0
   20.3226   23.1948   32.5781 C   0  0  0  0  0  0  0  0  0  0  0  0
   20.9393   23.8703   33.7351 N   0  0  0  0  0  0  0  0  0  0  0  0
   22.0394   23.1513   34.4108 C   0  0  0  0  0  0  0  0  0  0  0  0
   21.6441   22.6592   35.8187 C   0  0  0  0  0  0  0  0  0  0  0  0
   22.3920   23.3331   36.8187 O   0  0  0  0  0  0  0  0  0  0  0  0
   21.6312   24.3192   37.4986 C   0  0  0  0  0  0  0  0  0  0  0  0
   22.3748   25.6656   37.4982 C   0  0  0  0  0  0  0  0  0  0  0  0
  1  2  1  0
  2  3  2  0
  2  4  1  0
  4  5  2  0
  5  6  1  0
  6  7  2  0
  7  8  1  0
  8  9  2  0
  9 10  1  0
 10 11  2  0
 11 12  1  0
 12 13  2  0
 13 14  1  0
  1 15  1  0
 15 16  2  0
 16 17  1  0
 17 18  2  0
 18 19  1  0
 19 20  1  0
 20 21  1  0
 20 22  1  0
 22 23  2  0
 22 24  1  0
 24 25  1  0
 25 26  1  0
 26 27  1  0
 27 28  1  0
 28 29  1  0
 29 30  1  0
 13  4  1  0
 30 15  1  0
 12  7  1  0
 25 18  1  0
M  END
>  <AAScore>  (1) 
1758.982072185449

>  <RootName>  (1) 
./4ZLY/04_DeltaGEst/trajectory_00/rank_01/lead_0370

$$$$
