confid_9
     RDKit          3D

 29 31  0  0  0  0  0  0  0  0999 V2000
   24.5700   26.8800   35.5900 N   0  0  0  0  0  0  0  0  0  0  0  0
   25.5000   26.4000   34.6900 C   0  0  0  0  0  0  0  0  0  0  0  0
   25.1700   25.5200   33.9100 O   0  0  0  0  0  0  0  0  0  0  0  0
   26.8400   27.0200   34.7400 C   0  0  0  0  0  0  0  0  0  0  0  0
   27.3800   27.2800   35.9400 N   0  0  0  0  0  0  0  0  0  0  0  0
   28.6200   27.7400   36.0300 N   0  0  0  0  0  0  0  0  0  0  0  0
   29.3800   28.0000   34.9600 C   0  0  0  0  0  0  0  0  0  0  0  0
   30.6700   28.5000   35.1300 C   0  0  0  0  0  0  0  0  0  0  0  0
   31.5400   28.6100   34.0300 C   0  0  0  0  0  0  0  0  0  0  0  0
   31.0900   28.2200   32.7700 C   0  0  0  0  0  0  0  0  0  0  0  0
   29.8000   27.7000   32.6000 C   0  0  0  0  0  0  0  0  0  0  0  0
   28.9600   27.5500   33.7100 C   0  0  0  0  0  0  0  0  0  0  0  0
   27.6600   27.0300   33.5900 C   0  0  0  0  0  0  0  0  0  0  0  0
   27.1600   26.7400   32.3400 N   0  0  0  0  0  0  0  0  0  0  0  0
   33.1824   29.2048   34.2553 S   0  0  0  0  0  6  0  0  0  0  0  0
   33.1660   30.3243   35.2580 O   0  0  0  0  0  0  0  0  0  0  0  0
   33.7133   29.7424   32.9561 O   0  0  0  0  0  0  0  0  0  0  0  0
   34.2416   27.8929   34.8626 C   0  0  0  0  0  0  0  0  0  0  0  0
   34.1722   26.6246   33.9897 C   0  0  2  0  0  0  0  0  0  0  0  0
   34.8158   25.4204   34.7147 C   0  0  0  0  0  0  0  0  0  0  0  0
   35.0439   24.1843   33.7968 C   0  0  0  0  0  0  0  0  0  0  0  0
   34.5556   24.3838   32.3299 C   0  0  2  0  0  0  0  0  0  0  0  0
   35.0064   23.3232   31.3777 N   0  0  0  0  0  0  0  0  0  0  0  0
   34.1840   23.3847   30.1457 C   0  0  0  0  0  0  0  0  0  0  0  0
   34.9463   21.9545   31.9544 C   0  0  0  0  0  0  0  0  0  0  0  0
   35.4567   20.8831   30.9856 C   0  0  0  0  0  0  0  0  0  0  0  0
   35.0481   25.7471   31.8701 C   0  0  0  0  0  0  0  0  0  0  0  0
   34.8546   26.8134   32.6565 C   0  0  0  0  0  0  0  0  0  0  0  0
   35.7839   25.8854   30.7339 F   0  0  0  0  0  0  0  0  0  0  0  0
  1  2  1  0
  2  3  2  0
  2  4  1  0
  4  5  2  0
  5  6  1  0
  6  7  2  0
  7  8  1  0
  8  9  2  0
  9 10  1  0
 10 11  2  0
 11 12  1  0
 12 13  2  0
 13 14  1  0
  9 15  1  0
 15 16  2  0
 15 17  2  0
 15 18  1  0
 19 18  1  1
 19 20  1  0
 20 21  1  0
 21 22  1  0
 22 23  1  6
 23 24  1  0
 23 25  1  0
 25 26  1  0
 22 27  1  0
 27 28  2  0
 27 29  1  0
 13  4  1  0
 28 19  1  0
 12  7  1  0
M  END
>  <AAScore>  (1) 
4360.06719176126

>  <RootName>  (1) 
./4ZLY/04_DeltaGEst/trajectory_05/rank_01/lead_0103

$$$$
