confid_4
     RDKit          3D

 27 29  0  0  0  0  0  0  0  0999 V2000
   24.6900   26.1200   35.5300 N   0  0  0  0  0  0  0  0  0  0  0  0
   25.6600   25.6700   34.6600 C   0  0  0  0  0  0  0  0  0  0  0  0
   25.2400   25.0100   33.7200 O   0  0  0  0  0  0  0  0  0  0  0  0
   27.0300   26.2200   34.8800 C   0  0  0  0  0  0  0  0  0  0  0  0
   27.3500   26.7300   36.0700 N   0  0  0  0  0  0  0  0  0  0  0  0
   28.5700   27.1800   36.3300 N   0  0  0  0  0  0  0  0  0  0  0  0
   29.5300   27.1100   35.3900 C   0  0  0  0  0  0  0  0  0  0  0  0
   30.8300   27.5700   35.6500 C   0  0  0  0  0  0  0  0  0  0  0  0
   31.8500   27.5400   34.6900 C   0  0  0  0  0  0  0  0  0  0  0  0
   31.5100   27.1200   33.4000 C   0  0  0  0  0  0  0  0  0  0  0  0
   30.2200   26.6300   33.1100 C   0  0  0  0  0  0  0  0  0  0  0  0
   29.2400   26.6600   34.1000 C   0  0  0  0  0  0  0  0  0  0  0  0
   27.9300   26.2600   33.8100 C   0  0  0  0  0  0  0  0  0  0  0  0
   27.5200   25.7100   32.6100 N   0  0  0  0  0  0  0  0  0  0  0  0
   31.1552   28.0919   36.9535 N   0  0  0  0  0  0  0  0  0  0  0  0
   32.0735   27.2843   37.7887 C   0  0  0  0  0  0  0  0  0  0  0  0
   31.3181   26.1210   38.4602 C   0  0  0  0  0  0  0  0  0  0  0  0
   31.5518   26.0578   39.9203 N   0  0  0  0  0  0  0  0  0  0  0  0
   31.0356   24.8072   40.5170 C   0  0  0  0  0  0  0  0  0  0  0  0
   29.5238   24.6135   40.3538 C   0  0  0  0  0  0  0  0  0  0  0  0
   31.0222   27.4895   40.8040 S   0  0  0  0  0  6  0  0  0  0  0  0
   30.5266   27.1003   42.1704 O   0  0  0  0  0  0  0  0  0  0  0  0
   32.2173   28.3810   41.0007 O   0  0  0  0  0  0  0  0  0  0  0  0
   29.6925   28.4039   39.9938 C   0  0  0  0  0  0  0  0  0  0  0  0
   30.0486   29.8715   39.6991 C   0  0  0  0  0  0  0  0  0  0  0  0
   31.1029   30.0907   38.5922 C   0  0  0  0  0  0  0  0  0  0  0  0
   30.7278   29.4837   37.2203 C   0  0  0  0  0  0  0  0  0  0  0  0
  1  2  1  0
  2  3  2  0
  2  4  1  0
  4  5  2  0
  5  6  1  0
  6  7  2  0
  7  8  1  0
  8  9  2  0
  9 10  1  0
 10 11  2  0
 11 12  1  0
 12 13  2  0
 13 14  1  0
  8 15  1  0
 15 16  1  0
 16 17  1  0
 17 18  1  0
 18 19  1  0
 19 20  1  0
 18 21  1  0
 21 22  2  0
 21 23  2  0
 21 24  1  0
 24 25  1  0
 25 26  1  0
 26 27  1  0
 13  4  1  0
 27 15  1  0
 12  7  1  0
M  END
>  <AAScore>  (1) 
630.7627315334481

>  <RootName>  (1) 
./4ZLY/04_DeltaGEst/trajectory_02/rank_01/lead_0156

$$$$
