confid_14
     RDKit          3D

 30 34  0  0  0  0  0  0  0  0999 V2000
   24.5500   26.3900   36.2500 N   0  0  0  0  0  0  0  0  0  0  0  0
   25.6000   26.1300   35.4000 C   0  0  0  0  0  0  0  0  0  0  0  0
   25.4300   25.4300   34.4200 O   0  0  0  0  0  0  0  0  0  0  0  0
   26.9800   26.6300   35.7100 C   0  0  0  0  0  0  0  0  0  0  0  0
   27.3200   26.8200   36.9800 N   0  0  0  0  0  0  0  0  0  0  0  0
   28.4700   27.4000   37.3100 N   0  0  0  0  0  0  0  0  0  0  0  0
   29.4000   27.6300   36.3700 C   0  0  0  0  0  0  0  0  0  0  0  0
   30.6600   28.0500   36.8000 C   0  0  0  0  0  0  0  0  0  0  0  0
   31.5700   28.3600   35.7800 C   0  0  0  0  0  0  0  0  0  0  0  0
   31.3700   28.1000   34.4300 C   0  0  0  0  0  0  0  0  0  0  0  0
   30.1200   27.5900   34.0500 C   0  0  0  0  0  0  0  0  0  0  0  0
   29.1500   27.3400   35.0300 C   0  0  0  0  0  0  0  0  0  0  0  0
   27.8800   26.8900   34.6600 C   0  0  0  0  0  0  0  0  0  0  0  0
   27.4800   26.6100   33.3700 N   0  0  0  0  0  0  0  0  0  0  0  0
   23.1712   26.2936   35.8468 C   0  0  0  0  0  0  0  0  0  0  0  0
   22.8874   26.6437   34.6214 N   0  0  0  0  0  0  0  0  0  0  0  0
   21.7338   26.7577   33.7717 C   0  0  0  0  0  0  0  0  0  0  0  0
   20.5177   26.3045   34.0339 C   0  0  0  0  0  0  0  0  0  0  0  0
   19.2854   25.9861   33.2364 C   0  0  0  0  0  0  0  0  0  0  0  0
   18.6316   25.3347   34.2739 O   0  0  0  0  0  0  0  0  0  0  0  0
   19.6983   25.6658   35.1025 C   0  0  1  0  0  0  0  0  0  0  0  0
   20.4211   24.4513   35.6781 C   0  0  0  0  0  0  0  0  0  0  0  0
   21.1742   24.9262   36.8669 C   0  0  0  0  0  0  0  0  0  0  0  0
   22.1886   25.8878   36.8961 C   0  0  0  0  0  0  0  0  0  0  0  0
   22.3594   26.1264   38.2535 C   0  0  0  0  0  0  0  0  0  0  0  0
   21.4916   25.3665   38.9513 N   0  0  0  0  0  0  0  0  0  0  0  0
   20.7514   24.6585   38.1179 N   0  0  0  0  0  0  0  0  0  0  0  0
   21.3451   25.3365   40.4101 C   0  0  0  0  0  0  0  0  0  0  0  0
   21.3439   23.8869   40.9118 C   0  0  0  0  0  0  0  0  0  0  0  0
   20.0614   26.0662   40.8258 C   0  0  0  0  0  0  0  0  0  0  0  0
  1  2  1  0
  2  3  2  0
  2  4  1  0
  4  5  2  0
  5  6  1  0
  6  7  2  0
  7  8  1  0
  8  9  2  0
  9 10  1  0
 10 11  2  0
 11 12  1  0
 12 13  2  0
 13 14  1  0
  1 15  1  0
 15 16  2  0
 16 17  1  0
 17 18  2  0
 18 19  1  0
 19 20  1  0
 20 21  1  0
 21 22  1  6
 22 23  1  0
 23 24  1  0
 24 25  2  0
 25 26  1  0
 26 27  1  0
 26 28  1  0
 28 29  1  0
 28 30  1  0
 13  4  1  0
 24 15  1  0
 12  7  1  0
 21 18  1  0
 27 23  2  0
M  END
>  <AAScore>  (1) 
1034.8131137051523

>  <RootName>  (1) 
./4ZLY/04_DeltaGEst/trajectory_01/rank_00/lead_0151

$$$$
