confid_18
     RDKit          3D

 28 31  0  0  0  0  0  0  0  0999 V2000
   25.3300   26.2600   34.7600 N   0  0  0  0  0  0  0  0  0  0  0  0
   26.1200   25.9200   33.6900 C   0  0  0  0  0  0  0  0  0  0  0  0
   25.6300   25.1100   32.9400 O   0  0  0  0  0  0  0  0  0  0  0  0
   27.5200   26.3800   33.4600 C   0  0  0  0  0  0  0  0  0  0  0  0
   28.1600   26.6300   34.6100 N   0  0  0  0  0  0  0  0  0  0  0  0
   29.4800   26.8500   34.5700 N   0  0  0  0  0  0  0  0  0  0  0  0
   30.1900   26.7800   33.4400 C   0  0  0  0  0  0  0  0  0  0  0  0
   31.5600   27.0500   33.5000 C   0  0  0  0  0  0  0  0  0  0  0  0
   32.2700   27.2400   32.3100 C   0  0  0  0  0  0  0  0  0  0  0  0
   31.6100   27.2500   31.0800 C   0  0  0  0  0  0  0  0  0  0  0  0
   30.2700   26.8700   31.0600 C   0  0  0  0  0  0  0  0  0  0  0  0
   29.5100   26.6900   32.2300 C   0  0  0  0  0  0  0  0  0  0  0  0
   28.1400   26.4100   32.2000 C   0  0  0  0  0  0  0  0  0  0  0  0
   27.4300   26.1300   31.0500 N   0  0  0  0  0  0  0  0  0  0  0  0
   26.5433   27.1548   30.4855 C   0  0  0  0  0  0  0  0  0  0  0  0
   26.2267   26.8467   29.0224 C   0  0  0  0  0  0  0  0  0  0  0  0
   27.4470   26.3289   28.3773 N   0  0  0  0  0  0  0  0  0  0  0  0
   27.3286   26.3416   26.9065 C   0  0  0  0  0  0  0  0  0  0  0  0
   27.5762   27.7258   26.3827 C   0  0  0  0  0  0  0  0  0  0  0  0
   28.8301   28.3283   26.5339 C   0  0  0  0  0  0  0  0  0  0  0  0
   29.0091   29.6300   26.0570 C   0  0  0  0  0  0  0  0  0  0  0  0
   30.3245   30.3219   26.2209 C   0  0  0  0  0  0  0  0  0  0  0  0
   27.9696   30.2783   25.4673 N   0  0  0  0  0  0  0  0  0  0  0  0
   26.7601   29.6760   25.3156 C   0  0  0  0  0  0  0  0  0  0  0  0
   26.5681   28.4144   25.7841 N   0  0  0  0  0  0  0  0  0  0  0  0
   25.6261   30.4248   24.6998 C   0  0  0  0  0  0  0  0  0  0  0  0
   27.7592   24.9679   28.8665 C   0  0  0  0  0  0  0  0  0  0  0  0
   27.5762   24.8230   30.3942 C   0  0  0  0  0  0  0  0  0  0  0  0
  1  2  1  0
  2  3  2  0
  2  4  1  0
  4  5  2  0
  5  6  1  0
  6  7  2  0
  7  8  1  0
  8  9  2  0
  9 10  1  0
 10 11  2  0
 11 12  1  0
 12 13  2  0
 13 14  1  0
 14 15  1  0
 15 16  1  0
 16 17  1  0
 17 18  1  0
 18 19  1  0
 19 20  2  0
 20 21  1  0
 21 22  1  0
 21 23  2  0
 23 24  1  0
 24 25  2  0
 24 26  1  0
 17 27  1  0
 27 28  1  0
 13  4  1  0
 28 14  1  0
 12  7  1  0
 25 19  1  0
M  END
>  <AAScore>  (1) 
16.172136353750442

>  <RootName>  (1) 
./4ZLY/04_DeltaGEst/trajectory_03/rank_01/lead_0375

$$$$
