confid_4
     RDKit          3D

 26 29  0  0  0  0  0  0  0  0999 V2000
   25.3300   26.2600   34.7600 N   0  0  0  0  0  0  0  0  0  0  0  0
   26.1200   25.9200   33.6900 C   0  0  0  0  0  0  0  0  0  0  0  0
   25.6300   25.1100   32.9400 O   0  0  0  0  0  0  0  0  0  0  0  0
   27.5200   26.3800   33.4600 C   0  0  0  0  0  0  0  0  0  0  0  0
   28.1600   26.6300   34.6100 N   0  0  0  0  0  0  0  0  0  0  0  0
   29.4800   26.8500   34.5700 N   0  0  0  0  0  0  0  0  0  0  0  0
   30.1900   26.7800   33.4400 C   0  0  0  0  0  0  0  0  0  0  0  0
   31.5600   27.0500   33.5000 C   0  0  0  0  0  0  0  0  0  0  0  0
   32.2700   27.2400   32.3100 C   0  0  0  0  0  0  0  0  0  0  0  0
   31.6100   27.2500   31.0800 C   0  0  0  0  0  0  0  0  0  0  0  0
   30.2700   26.8700   31.0600 C   0  0  0  0  0  0  0  0  0  0  0  0
   29.5100   26.6900   32.2300 C   0  0  0  0  0  0  0  0  0  0  0  0
   28.1400   26.4100   32.2000 C   0  0  0  0  0  0  0  0  0  0  0  0
   27.4300   26.1300   31.0500 N   0  0  0  0  0  0  0  0  0  0  0  0
   23.8913   26.2160   34.7781 C   0  0  0  0  0  0  0  0  0  0  0  0
   23.2531   26.0318   35.9732 N   0  0  0  0  0  0  0  0  0  0  0  0
   21.8978   26.0121   36.0301 C   0  0  0  0  0  0  0  0  0  0  0  0
   21.0549   25.8183   37.2551 C   0  0  0  0  0  0  0  0  0  0  0  0
   19.6904   25.8984   36.7255 N   0  0  0  0  0  0  0  0  0  0  0  0
   19.7510   26.1205   35.3196 C   0  0  0  0  0  0  0  0  0  0  0  0
   18.7418   26.2380   34.5751 O   0  0  0  0  0  0  0  0  0  0  0  0
   21.1324   26.1882   34.9019 C   0  0  0  0  0  0  0  0  0  0  0  0
   21.7249   26.4023   33.6588 C   0  0  0  0  0  0  0  0  0  0  0  0
   20.7690   26.6572   32.2084 Cl  0  0  0  0  0  0  0  0  0  0  0  0
   23.1276   26.4226   33.5992 C   0  0  0  0  0  0  0  0  0  0  0  0
   18.4696   25.7737   37.5107 C   0  0  0  0  0  0  0  0  0  0  0  0
  1  2  1  0
  2  3  2  0
  2  4  1  0
  4  5  2  0
  5  6  1  0
  6  7  2  0
  7  8  1  0
  8  9  2  0
  9 10  1  0
 10 11  2  0
 11 12  1  0
 12 13  2  0
 13 14  1  0
  1 15  1  0
 15 16  2  0
 16 17  1  0
 17 18  1  0
 18 19  1  0
 19 20  1  0
 20 21  2  0
 20 22  1  0
 22 23  1  0
 23 24  1  0
 23 25  2  0
 19 26  1  0
 13  4  1  0
 25 15  1  0
 12  7  1  0
 22 17  2  0
M  END
>  <AAScore>  (1) 
3001.9407054031294

>  <RootName>  (1) 
./4ZLY/04_DeltaGEst/trajectory_03/rank_00/lead_0046

$$$$
