confid_5
     RDKit          3D

 27 29  0  0  0  0  0  0  0  0999 V2000
   24.5700   26.8800   35.5900 N   0  0  0  0  0  0  0  0  0  0  0  0
   25.5000   26.4000   34.6900 C   0  0  0  0  0  0  0  0  0  0  0  0
   25.1700   25.5200   33.9100 O   0  0  0  0  0  0  0  0  0  0  0  0
   26.8400   27.0200   34.7400 C   0  0  0  0  0  0  0  0  0  0  0  0
   27.3800   27.2800   35.9400 N   0  0  0  0  0  0  0  0  0  0  0  0
   28.6200   27.7400   36.0300 N   0  0  0  0  0  0  0  0  0  0  0  0
   29.3800   28.0000   34.9600 C   0  0  0  0  0  0  0  0  0  0  0  0
   30.6700   28.5000   35.1300 C   0  0  0  0  0  0  0  0  0  0  0  0
   31.5400   28.6100   34.0300 C   0  0  0  0  0  0  0  0  0  0  0  0
   31.0900   28.2200   32.7700 C   0  0  0  0  0  0  0  0  0  0  0  0
   29.8000   27.7000   32.6000 C   0  0  0  0  0  0  0  0  0  0  0  0
   28.9600   27.5500   33.7100 C   0  0  0  0  0  0  0  0  0  0  0  0
   27.6600   27.0300   33.5900 C   0  0  0  0  0  0  0  0  0  0  0  0
   27.1600   26.7400   32.3400 N   0  0  0  0  0  0  0  0  0  0  0  0
   33.1604   29.2637   34.2374 S   0  0  0  0  0  6  0  0  0  0  0  0
   33.6698   28.9246   35.6107 O   0  0  0  0  0  0  0  0  0  0  0  0
   34.0846   28.6594   33.2171 O   0  0  0  0  0  0  0  0  0  0  0  0
   33.1038   31.0345   34.0306 C   0  0  0  0  0  0  0  0  0  0  0  0
   34.4736   31.6264   34.2101 C   0  0  0  0  0  0  0  0  0  0  0  0
   34.9239   31.9901   35.4866 C   0  0  0  0  0  0  0  0  0  0  0  0
   36.2150   32.5137   35.6756 C   0  0  0  0  0  0  0  0  0  0  0  0
   36.6499   32.8626   37.0814 C   0  0  0  0  0  0  0  0  0  0  0  0
   37.2044   31.6351   37.7985 C   0  0  0  0  0  0  0  0  0  0  0  0
   37.0813   32.6425   34.5598 C   0  0  0  0  0  0  0  0  0  0  0  0
   36.6194   32.2738   33.2849 C   0  0  0  0  0  0  0  0  0  0  0  0
   35.3316   31.7653   33.1129 C   0  0  0  0  0  0  0  0  0  0  0  0
   38.4764   33.1941   34.6984 C   0  0  0  0  0  0  0  0  0  0  0  0
  1  2  1  0
  2  3  2  0
  2  4  1  0
  4  5  2  0
  5  6  1  0
  6  7  2  0
  7  8  1  0
  8  9  2  0
  9 10  1  0
 10 11  2  0
 11 12  1  0
 12 13  2  0
 13 14  1  0
  9 15  1  0
 15 16  2  0
 15 17  2  0
 15 18  1  0
 18 19  1  0
 19 20  2  0
 20 21  1  0
 21 22  1  0
 22 23  1  0
 21 24  2  0
 24 25  1  0
 25 26  2  0
 24 27  1  0
 13  4  1  0
 26 19  1  0
 12  7  1  0
M  END
>  <AAScore>  (1) 
-5.630793272159014

>  <RootName>  (1) 
./4ZLY/04_DeltaGEst/trajectory_05/rank_01/lead_0120

$$$$
