confid_6
     RDKit          3D

 27 30  0  0  0  0  0  0  0  0999 V2000
   24.4800   26.1000   36.1300 N   0  0  0  0  0  0  0  0  0  0  0  0
   25.2500   26.2500   34.9900 C   0  0  0  0  0  0  0  0  0  0  0  0
   24.7400   25.7600   33.9900 O   0  0  0  0  0  0  0  0  0  0  0  0
   26.5900   26.8900   34.9600 C   0  0  0  0  0  0  0  0  0  0  0  0
   27.0600   27.2400   36.1600 N   0  0  0  0  0  0  0  0  0  0  0  0
   28.3000   27.7100   36.2400 N   0  0  0  0  0  0  0  0  0  0  0  0
   29.0500   27.9600   35.1500 C   0  0  0  0  0  0  0  0  0  0  0  0
   30.3400   28.4900   35.2600 C   0  0  0  0  0  0  0  0  0  0  0  0
   31.1100   28.8200   34.1400 C   0  0  0  0  0  0  0  0  0  0  0  0
   30.5200   28.6700   32.8800 C   0  0  0  0  0  0  0  0  0  0  0  0
   29.2900   28.0200   32.7700 C   0  0  0  0  0  0  0  0  0  0  0  0
   28.5200   27.7100   33.8900 C   0  0  0  0  0  0  0  0  0  0  0  0
   27.2700   27.0800   33.7600 C   0  0  0  0  0  0  0  0  0  0  0  0
   26.7500   26.8800   32.4900 N   0  0  0  0  0  0  0  0  0  0  0  0
   23.0497   25.9143   36.1393 C   0  0  0  0  0  0  0  0  0  0  0  0
   22.2787   26.0188   35.0314 N   0  0  0  0  0  0  0  0  0  0  0  0
   21.0330   25.7573   35.4748 C   0  0  0  0  0  0  0  0  0  0  0  0
   19.8508   25.5490   34.5845 C   0  0  0  0  0  0  0  0  0  0  0  0
   19.5885   24.0986   34.4316 N   0  0  0  0  0  0  0  0  0  0  0  0
   18.9380   23.8452   33.1343 C   0  0  0  0  0  0  0  0  0  0  0  0
   18.7405   23.5616   35.5257 C   0  0  0  0  0  0  0  0  0  0  0  0
   19.5305   23.3469   36.8271 C   0  0  0  0  0  0  0  0  0  0  0  0
   19.6790   24.8959   37.7834 S   0  0  0  0  0  0  0  0  0  0  0  0
   21.0695   25.4826   36.8181 C   0  0  0  0  0  0  0  0  0  0  0  0
   22.3399   25.5916   37.2482 N   0  0  0  0  0  0  0  0  0  0  0  0
   22.8449   25.2799   38.5880 C   0  0  0  0  0  0  0  0  0  0  0  0
   23.3752   23.8521   38.6367 C   0  0  0  0  0  0  0  0  0  0  0  0
  1  2  1  0
  2  3  2  0
  2  4  1  0
  4  5  2  0
  5  6  1  0
  6  7  2  0
  7  8  1  0
  8  9  2  0
  9 10  1  0
 10 11  2  0
 11 12  1  0
 12 13  2  0
 13 14  1  0
  1 15  1  0
 15 16  2  0
 16 17  1  0
 17 18  1  0
 18 19  1  0
 19 20  1  0
 19 21  1  0
 21 22  1  0
 22 23  1  0
 23 24  1  0
 24 25  1  0
 25 26  1  0
 26 27  1  0
 13  4  1  0
 25 15  1  0
 12  7  1  0
 24 17  2  0
M  END
>  <AAScore>  (1) 
11308.643728646211

>  <RootName>  (1) 
./4ZLY/04_DeltaGEst/trajectory_00/rank_01/lead_0307

$$$$
