confid_1
     RDKit          3D

 27 30  0  0  0  0  0  0  0  0999 V2000
   24.6900   26.1200   35.5300 N   0  0  0  0  0  0  0  0  0  0  0  0
   25.6600   25.6700   34.6600 C   0  0  0  0  0  0  0  0  0  0  0  0
   25.2400   25.0100   33.7200 O   0  0  0  0  0  0  0  0  0  0  0  0
   27.0300   26.2200   34.8800 C   0  0  0  0  0  0  0  0  0  0  0  0
   27.3500   26.7300   36.0700 N   0  0  0  0  0  0  0  0  0  0  0  0
   28.5700   27.1800   36.3300 N   0  0  0  0  0  0  0  0  0  0  0  0
   29.5300   27.1100   35.3900 C   0  0  0  0  0  0  0  0  0  0  0  0
   30.8300   27.5700   35.6500 C   0  0  0  0  0  0  0  0  0  0  0  0
   31.8500   27.5400   34.6900 C   0  0  0  0  0  0  0  0  0  0  0  0
   31.5100   27.1200   33.4000 C   0  0  0  0  0  0  0  0  0  0  0  0
   30.2200   26.6300   33.1100 C   0  0  0  0  0  0  0  0  0  0  0  0
   29.2400   26.6600   34.1000 C   0  0  0  0  0  0  0  0  0  0  0  0
   27.9300   26.2600   33.8100 C   0  0  0  0  0  0  0  0  0  0  0  0
   27.5200   25.7100   32.6100 N   0  0  0  0  0  0  0  0  0  0  0  0
   23.2818   26.2333   35.2241 C   0  0  0  0  0  0  0  0  0  0  0  0
   22.8976   26.2723   33.9683 N   0  0  0  0  0  0  0  0  0  0  0  0
   21.5589   26.3261   33.4573 C   0  0  0  0  0  0  0  0  0  0  0  0
   20.6184   26.9488   34.1398 C   0  0  0  0  0  0  0  0  0  0  0  0
   19.1351   27.1380   34.2441 C   0  0  0  0  0  0  0  0  0  0  0  0
   19.1949   27.7912   35.4772 O   0  0  0  0  0  0  0  0  0  0  0  0
   20.5836   27.7032   35.4214 C   0  0  2  0  0  0  0  0  0  0  0  0
   21.2788   29.0937   35.3794 C   0  0  0  0  0  0  0  0  0  0  0  0
   20.7790   30.0731   34.2877 C   0  0  2  0  0  0  0  0  0  0  0  0
   21.7853   31.0302   34.0566 O   0  0  0  0  0  0  0  0  0  0  0  0
   19.4951   30.8008   34.7083 C   0  0  0  0  0  0  0  0  0  0  0  0
   21.1572   26.8298   36.4994 C   0  0  0  0  0  0  0  0  0  0  0  0
   22.3402   26.1986   36.3918 C   0  0  0  0  0  0  0  0  0  0  0  0
  1  2  1  0
  2  3  2  0
  2  4  1  0
  4  5  2  0
  5  6  1  0
  6  7  2  0
  7  8  1  0
  8  9  2  0
  9 10  1  0
 10 11  2  0
 11 12  1  0
 12 13  2  0
 13 14  1  0
  1 15  1  0
 15 16  2  0
 16 17  1  0
 17 18  2  0
 18 19  1  0
 19 20  1  0
 20 21  1  0
 21 22  1  6
 22 23  1  0
 23 24  1  0
 23 25  1  1
 21 26  1  0
 26 27  2  0
 13  4  1  0
 27 15  1  0
 12  7  1  0
 21 18  1  0
M  END
>  <AAScore>  (1) 
114.39944167274388

>  <RootName>  (1) 
./4ZLY/04_DeltaGEst/trajectory_02/rank_00/lead_0019

$$$$
