confid_18
     RDKit          3D

 27 30  0  0  0  0  0  0  0  0999 V2000
   24.5500   26.3900   36.2500 N   0  0  0  0  0  0  0  0  0  0  0  0
   25.6000   26.1300   35.4000 C   0  0  0  0  0  0  0  0  0  0  0  0
   25.4300   25.4300   34.4200 O   0  0  0  0  0  0  0  0  0  0  0  0
   26.9800   26.6300   35.7100 C   0  0  0  0  0  0  0  0  0  0  0  0
   27.3200   26.8200   36.9800 N   0  0  0  0  0  0  0  0  0  0  0  0
   28.4700   27.4000   37.3100 N   0  0  0  0  0  0  0  0  0  0  0  0
   29.4000   27.6300   36.3700 C   0  0  0  0  0  0  0  0  0  0  0  0
   30.6600   28.0500   36.8000 C   0  0  0  0  0  0  0  0  0  0  0  0
   31.5700   28.3600   35.7800 C   0  0  0  0  0  0  0  0  0  0  0  0
   31.3700   28.1000   34.4300 C   0  0  0  0  0  0  0  0  0  0  0  0
   30.1200   27.5900   34.0500 C   0  0  0  0  0  0  0  0  0  0  0  0
   29.1500   27.3400   35.0300 C   0  0  0  0  0  0  0  0  0  0  0  0
   27.8800   26.8900   34.6600 C   0  0  0  0  0  0  0  0  0  0  0  0
   27.4800   26.6100   33.3700 N   0  0  0  0  0  0  0  0  0  0  0  0
   31.0512   28.1501   38.1559 N   0  0  0  0  0  0  0  0  0  0  0  0
   30.2094   28.8589   39.0799 C   0  0  0  0  0  0  0  0  0  0  0  0
   30.9655   29.3379   40.2921 C   0  0  0  0  0  0  0  0  0  0  0  0
   31.6733   28.1552   40.8856 C   0  0  0  0  0  0  0  0  0  0  0  0
   31.6728   27.9575   42.2479 C   0  0  0  0  0  0  0  0  0  0  0  0
   30.9458   28.9400   43.0740 C   0  0  0  0  0  0  0  0  0  0  0  0
   32.3506   26.8651   42.7242 C   0  0  0  0  0  0  0  0  0  0  0  0
   33.0110   25.9871   41.9135 C   0  0  0  0  0  0  0  0  0  0  0  0
   33.0296   26.1625   40.5170 C   0  0  0  0  0  0  0  0  0  0  0  0
   32.3182   27.3044   40.0435 C   0  0  0  0  0  0  0  0  0  0  0  0
   32.2897   27.5615   38.5837 C   0  0  0  0  0  0  0  0  0  0  0  0
   33.6237   25.3913   39.6840 O   0  0  0  0  0  0  0  0  0  0  0  0
   34.2253   24.6104   38.8407 C   0  0  0  0  0  0  0  0  0  0  0  0
  1  2  1  0
  2  3  2  0
  2  4  1  0
  4  5  2  0
  5  6  1  0
  6  7  2  0
  7  8  1  0
  8  9  2  0
  9 10  1  0
 10 11  2  0
 11 12  1  0
 12 13  2  0
 13 14  1  0
  8 15  1  0
 15 16  1  0
 16 17  1  0
 17 18  1  0
 18 19  2  0
 19 20  1  0
 19 21  1  0
 21 22  2  0
 22 23  1  0
 23 24  2  0
 24 25  1  0
 23 26  1  0
 26 27  1  0
 13  4  1  0
 25 15  1  0
 12  7  1  0
 24 18  1  0
M  END
>  <AAScore>  (1) 
51.70173810481055

>  <RootName>  (1) 
./4ZLY/04_DeltaGEst/trajectory_01/rank_01/lead_0377

$$$$
