confid_11
     RDKit          3D

 28 31  0  0  0  0  0  0  0  0999 V2000
   24.2000   26.2400   35.6900 N   0  0  0  0  0  0  0  0  0  0  0  0
   24.8500   26.2800   34.4800 C   0  0  0  0  0  0  0  0  0  0  0  0
   24.3100   25.7400   33.5400 O   0  0  0  0  0  0  0  0  0  0  0  0
   26.1800   26.9700   34.4700 C   0  0  0  0  0  0  0  0  0  0  0  0
   26.6500   27.6000   35.5500 N   0  0  0  0  0  0  0  0  0  0  0  0
   27.7900   28.2700   35.6200 N   0  0  0  0  0  0  0  0  0  0  0  0
   28.5400   28.3000   34.5100 C   0  0  0  0  0  0  0  0  0  0  0  0
   29.7700   28.9400   34.5600 C   0  0  0  0  0  0  0  0  0  0  0  0
   30.7000   28.8900   33.5000 C   0  0  0  0  0  0  0  0  0  0  0  0
   30.3700   28.1400   32.3700 C   0  0  0  0  0  0  0  0  0  0  0  0
   29.1200   27.5200   32.2800 C   0  0  0  0  0  0  0  0  0  0  0  0
   28.2100   27.6100   33.3300 C   0  0  0  0  0  0  0  0  0  0  0  0
   26.9700   26.9700   33.3100 C   0  0  0  0  0  0  0  0  0  0  0  0
   26.5300   26.2400   32.2200 N   0  0  0  0  0  0  0  0  0  0  0  0
   30.1419   29.6818   35.7349 N   0  0  0  0  0  0  0  0  0  0  0  0
   29.3717   30.8649   36.1341 C   0  0  0  0  0  0  0  0  0  0  0  0
   30.2911   31.9838   36.6713 C   0  0  0  0  0  0  0  0  0  0  0  0
   31.6239   31.4978   37.1132 N   0  0  0  0  0  0  0  0  0  0  0  0
   32.2577   32.4455   38.0528 C   0  0  0  0  0  0  0  0  0  0  0  0
   32.6125   33.7326   37.3539 C   0  0  0  0  0  0  0  0  0  0  0  0
   31.8803   34.9059   37.6011 C   0  0  0  0  0  0  0  0  0  0  0  0
   32.1987   36.0890   36.9271 C   0  0  0  0  0  0  0  0  0  0  0  0
   33.2444   36.1078   36.0000 C   0  0  0  0  0  0  0  0  0  0  0  0
   33.9726   34.9424   35.7430 C   0  0  0  0  0  0  0  0  0  0  0  0
   34.9829   34.9603   34.8391 F   0  0  0  0  0  0  0  0  0  0  0  0
   33.6569   33.7571   36.4151 C   0  0  0  0  0  0  0  0  0  0  0  0
   31.5339   30.1553   37.7129 C   0  0  0  0  0  0  0  0  0  0  0  0
   31.1861   29.1492   36.6159 C   0  0  0  0  0  0  0  0  0  0  0  0
  1  2  1  0
  2  3  2  0
  2  4  1  0
  4  5  2  0
  5  6  1  0
  6  7  2  0
  7  8  1  0
  8  9  2  0
  9 10  1  0
 10 11  2  0
 11 12  1  0
 12 13  2  0
 13 14  1  0
  8 15  1  0
 15 16  1  0
 16 17  1  0
 17 18  1  0
 18 19  1  0
 19 20  1  0
 20 21  2  0
 21 22  1  0
 22 23  2  0
 23 24  1  0
 24 25  1  0
 24 26  2  0
 18 27  1  0
 27 28  1  0
 13  4  1  0
 28 15  1  0
 12  7  1  0
 26 20  1  0
M  END
>  <AAScore>  (1) 
-8.041851874234595

>  <RootName>  (1) 
./4ZLY/04_DeltaGEst/trajectory_04/rank_01/lead_0093

$$$$
