confid_19
     RDKit          3D

 31 34  0  0  0  0  0  0  0  0999 V2000
   24.6900   26.1200   35.5300 N   0  0  0  0  0  0  0  0  0  0  0  0
   25.6600   25.6700   34.6600 C   0  0  0  0  0  0  0  0  0  0  0  0
   25.2400   25.0100   33.7200 O   0  0  0  0  0  0  0  0  0  0  0  0
   27.0300   26.2200   34.8800 C   0  0  0  0  0  0  0  0  0  0  0  0
   27.3500   26.7300   36.0700 N   0  0  0  0  0  0  0  0  0  0  0  0
   28.5700   27.1800   36.3300 N   0  0  0  0  0  0  0  0  0  0  0  0
   29.5300   27.1100   35.3900 C   0  0  0  0  0  0  0  0  0  0  0  0
   30.8300   27.5700   35.6500 C   0  0  0  0  0  0  0  0  0  0  0  0
   31.8500   27.5400   34.6900 C   0  0  0  0  0  0  0  0  0  0  0  0
   31.5100   27.1200   33.4000 C   0  0  0  0  0  0  0  0  0  0  0  0
   30.2200   26.6300   33.1100 C   0  0  0  0  0  0  0  0  0  0  0  0
   29.2400   26.6600   34.1000 C   0  0  0  0  0  0  0  0  0  0  0  0
   27.9300   26.2600   33.8100 C   0  0  0  0  0  0  0  0  0  0  0  0
   27.5200   25.7100   32.6100 N   0  0  0  0  0  0  0  0  0  0  0  0
   31.1492   28.0710   36.9568 N   0  0  0  0  0  0  0  0  0  0  0  0
   31.2491   29.5282   37.1340 C   0  0  0  0  0  0  0  0  0  0  0  0
   32.0822   29.9450   38.3534 C   0  0  0  0  0  0  0  0  0  0  0  0
   33.4919   29.4103   38.2836 C   0  0  0  0  0  0  0  0  0  0  0  0
   34.6599   30.1572   38.3540 C   0  0  0  0  0  0  0  0  0  0  0  0
   34.7711   31.5729   38.5726 N   0  0  0  0  0  0  0  0  0  0  0  0
   34.1540   32.2006   39.7413 C   0  0  0  0  0  0  0  0  0  0  0  0
   35.6057   32.3757   37.6766 C   0  0  0  0  0  0  0  0  0  0  0  0
   35.7217   29.2915   38.2087 C   0  0  0  0  0  0  0  0  0  0  0  0
   35.2559   28.0342   38.0607 N   0  0  0  0  0  0  0  0  0  0  0  0
   36.1026   26.8428   37.9522 C   0  0  0  0  0  0  0  0  0  0  0  0
   36.4606   26.3103   39.3369 C   0  0  0  0  0  0  0  0  0  0  0  0
   37.1937   25.1444   39.2103 F   0  0  0  0  0  0  0  0  0  0  0  0
   37.2132   27.2447   40.0273 F   0  0  0  0  0  0  0  0  0  0  0  0
   33.9013   28.0834   38.1156 C   0  0  0  0  0  0  0  0  0  0  0  0
   33.0277   26.8507   37.9935 C   0  0  0  0  0  0  0  0  0  0  0  0
   31.5200   27.1149   38.0078 C   0  0  0  0  0  0  0  0  0  0  0  0
  1  2  1  0
  2  3  2  0
  2  4  1  0
  4  5  2  0
  5  6  1  0
  6  7  2  0
  7  8  1  0
  8  9  2  0
  9 10  1  0
 10 11  2  0
 11 12  1  0
 12 13  2  0
 13 14  1  0
  8 15  1  0
 15 16  1  0
 16 17  1  0
 17 18  1  0
 18 19  1  0
 19 20  1  0
 20 21  1  0
 20 22  1  0
 19 23  2  0
 23 24  1  0
 24 25  1  0
 25 26  1  0
 26 27  1  0
 26 28  1  0
 24 29  1  0
 29 30  1  0
 30 31  1  0
 13  4  1  0
 31 15  1  0
 12  7  1  0
 29 18  2  0
M  END
>  <AAScore>  (1) 
1124.6687342043872

>  <RootName>  (1) 
./4ZLY/04_DeltaGEst/trajectory_02/rank_01/lead_0211

$$$$
