confid_16
     RDKit          3D

 32 35  0  0  0  0  0  0  0  0999 V2000
   24.6900   26.1200   35.5300 N   0  0  0  0  0  0  0  0  0  0  0  0
   25.6600   25.6700   34.6600 C   0  0  0  0  0  0  0  0  0  0  0  0
   25.2400   25.0100   33.7200 O   0  0  0  0  0  0  0  0  0  0  0  0
   27.0300   26.2200   34.8800 C   0  0  0  0  0  0  0  0  0  0  0  0
   27.3500   26.7300   36.0700 N   0  0  0  0  0  0  0  0  0  0  0  0
   28.5700   27.1800   36.3300 N   0  0  0  0  0  0  0  0  0  0  0  0
   29.5300   27.1100   35.3900 C   0  0  0  0  0  0  0  0  0  0  0  0
   30.8300   27.5700   35.6500 C   0  0  0  0  0  0  0  0  0  0  0  0
   31.8500   27.5400   34.6900 C   0  0  0  0  0  0  0  0  0  0  0  0
   31.5100   27.1200   33.4000 C   0  0  0  0  0  0  0  0  0  0  0  0
   30.2200   26.6300   33.1100 C   0  0  0  0  0  0  0  0  0  0  0  0
   29.2400   26.6600   34.1000 C   0  0  0  0  0  0  0  0  0  0  0  0
   27.9300   26.2600   33.8100 C   0  0  0  0  0  0  0  0  0  0  0  0
   27.5200   25.7100   32.6100 N   0  0  0  0  0  0  0  0  0  0  0  0
   23.4018   25.4951   35.7221 C   0  0  0  0  0  0  0  0  0  0  0  0
   23.1843   24.3020   35.2434 N   0  0  0  0  0  0  0  0  0  0  0  0
   21.9509   23.5799   35.3202 C   0  0  0  0  0  0  0  0  0  0  0  0
   21.9136   22.2783   35.6626 C   0  0  0  0  0  0  0  0  0  0  0  0
   20.9109   21.4047   34.9542 C   0  0  0  0  0  0  0  0  0  0  0  0
   21.4913   20.9848   33.6631 N   0  0  0  0  0  0  0  0  0  0  0  0
   22.7823   20.2545   33.6548 C   0  0  0  0  0  0  0  0  0  0  0  0
   23.9812   21.2053   33.9119 C   0  0  0  0  0  0  0  0  0  0  0  0
   24.3172   21.4559   35.4090 C   0  0  0  0  0  0  0  0  0  0  0  0
   23.0744   21.5421   36.3233 C   0  0  1  0  0  0  0  0  0  0  0  0
   23.3593   21.9099   37.8069 C   0  0  0  0  0  0  0  0  0  0  0  0
   23.6544   23.3778   38.1331 C   0  0  0  0  0  0  0  0  0  0  0  0
   22.4503   24.1242   38.1160 O   0  0  0  0  0  0  0  0  0  0  0  0
   22.7100   25.5184   38.1122 C   0  0  0  0  0  0  0  0  0  0  0  0
   22.4497   26.1057   36.7193 C   0  0  0  0  0  0  0  0  0  0  0  0
   20.8636   21.4048   32.4271 C   0  0  0  0  0  0  0  0  0  0  0  0
   19.6466   21.7525   32.4205 O   0  0  0  0  0  0  0  0  0  0  0  0
   21.6138   21.4263   31.1289 C   0  0  0  0  0  0  0  0  0  0  0  0
  1  2  1  0
  2  3  2  0
  2  4  1  0
  4  5  2  0
  5  6  1  0
  6  7  2  0
  7  8  1  0
  8  9  2  0
  9 10  1  0
 10 11  2  0
 11 12  1  0
 12 13  2  0
 13 14  1  0
  1 15  1  0
 15 16  2  0
 16 17  1  0
 17 18  2  0
 18 19  1  0
 19 20  1  0
 20 21  1  0
 21 22  1  0
 22 23  1  0
 24 23  1  6
 24 25  1  0
 25 26  1  0
 26 27  1  0
 27 28  1  0
 28 29  1  0
 20 30  1  0
 30 31  2  0
 30 32  1  0
 13  4  1  0
 29 15  1  0
 12  7  1  0
 24 18  1  0
M  END
>  <AAScore>  (1) 
3008.70271926061

>  <RootName>  (1) 
./4ZLY/04_DeltaGEst/trajectory_02/rank_00/lead_0396

$$$$
