confid_7
     RDKit          3D

 27 30  0  0  0  0  0  0  0  0999 V2000
   24.5700   26.8800   35.5900 N   0  0  0  0  0  0  0  0  0  0  0  0
   25.5000   26.4000   34.6900 C   0  0  0  0  0  0  0  0  0  0  0  0
   25.1700   25.5200   33.9100 O   0  0  0  0  0  0  0  0  0  0  0  0
   26.8400   27.0200   34.7400 C   0  0  0  0  0  0  0  0  0  0  0  0
   27.3800   27.2800   35.9400 N   0  0  0  0  0  0  0  0  0  0  0  0
   28.6200   27.7400   36.0300 N   0  0  0  0  0  0  0  0  0  0  0  0
   29.3800   28.0000   34.9600 C   0  0  0  0  0  0  0  0  0  0  0  0
   30.6700   28.5000   35.1300 C   0  0  0  0  0  0  0  0  0  0  0  0
   31.5400   28.6100   34.0300 C   0  0  0  0  0  0  0  0  0  0  0  0
   31.0900   28.2200   32.7700 C   0  0  0  0  0  0  0  0  0  0  0  0
   29.8000   27.7000   32.6000 C   0  0  0  0  0  0  0  0  0  0  0  0
   28.9600   27.5500   33.7100 C   0  0  0  0  0  0  0  0  0  0  0  0
   27.6600   27.0300   33.5900 C   0  0  0  0  0  0  0  0  0  0  0  0
   27.1600   26.7400   32.3400 N   0  0  0  0  0  0  0  0  0  0  0  0
   33.1583   29.2749   34.2279 S   0  0  0  0  0  6  0  0  0  0  0  0
   33.6060   29.1082   35.6540 O   0  0  0  0  0  0  0  0  0  0  0  0
   34.1109   28.5278   33.3363 O   0  0  0  0  0  0  0  0  0  0  0  0
   33.1544   31.0119   33.7859 C   0  0  0  0  0  0  0  0  0  0  0  0
   32.1615   31.7888   34.6611 C   0  0  0  0  0  0  0  0  0  0  0  0
   32.2309   33.2966   34.3660 C   0  0  0  0  0  0  0  0  0  0  0  0
   33.6022   33.8454   34.4761 N   0  0  0  0  0  0  0  0  0  0  0  0
   34.0810   33.9714   35.8700 C   0  0  0  0  0  0  0  0  0  0  0  0
   33.3617   35.1255   36.5826 C   0  0  0  0  0  0  0  0  0  0  0  0
   32.2857   34.7350   37.5865 C   0  0  0  0  0  0  0  0  0  0  0  0
   33.6443   35.2084   38.0757 C   0  0  0  0  0  0  0  0  0  0  0  0
   34.5514   33.1063   33.6160 C   0  0  0  0  0  0  0  0  0  0  0  0
   34.5647   31.6003   33.9182 C   0  0  0  0  0  0  0  0  0  0  0  0
  1  2  1  0
  2  3  2  0
  2  4  1  0
  4  5  2  0
  5  6  1  0
  6  7  2  0
  7  8  1  0
  8  9  2  0
  9 10  1  0
 10 11  2  0
 11 12  1  0
 12 13  2  0
 13 14  1  0
  9 15  1  0
 15 16  2  0
 15 17  2  0
 15 18  1  0
 18 19  1  0
 19 20  1  0
 20 21  1  0
 21 22  1  0
 22 23  1  0
 23 24  1  0
 24 25  1  0
 21 26  1  0
 26 27  1  0
 13  4  1  0
 27 18  1  0
 12  7  1  0
 25 23  1  0
M  END
>  <AAScore>  (1) 
-6.846752993141148

>  <RootName>  (1) 
./4ZLY/04_DeltaGEst/trajectory_05/rank_01/lead_0385

$$$$
