confid_13
     RDKit          3D

 28 32  0  0  0  0  0  0  0  0999 V2000
   24.4800   26.1000   36.1300 N   0  0  0  0  0  0  0  0  0  0  0  0
   25.2500   26.2500   34.9900 C   0  0  0  0  0  0  0  0  0  0  0  0
   24.7400   25.7600   33.9900 O   0  0  0  0  0  0  0  0  0  0  0  0
   26.5900   26.8900   34.9600 C   0  0  0  0  0  0  0  0  0  0  0  0
   27.0600   27.2400   36.1600 N   0  0  0  0  0  0  0  0  0  0  0  0
   28.3000   27.7100   36.2400 N   0  0  0  0  0  0  0  0  0  0  0  0
   29.0500   27.9600   35.1500 C   0  0  0  0  0  0  0  0  0  0  0  0
   30.3400   28.4900   35.2600 C   0  0  0  0  0  0  0  0  0  0  0  0
   31.1100   28.8200   34.1400 C   0  0  0  0  0  0  0  0  0  0  0  0
   30.5200   28.6700   32.8800 C   0  0  0  0  0  0  0  0  0  0  0  0
   29.2900   28.0200   32.7700 C   0  0  0  0  0  0  0  0  0  0  0  0
   28.5200   27.7100   33.8900 C   0  0  0  0  0  0  0  0  0  0  0  0
   27.2700   27.0800   33.7600 C   0  0  0  0  0  0  0  0  0  0  0  0
   26.7500   26.8800   32.4900 N   0  0  0  0  0  0  0  0  0  0  0  0
   23.0479   26.1948   36.1398 C   0  0  0  0  0  0  0  0  0  0  0  0
   22.3284   25.7119   37.1038 N   0  0  0  0  0  0  0  0  0  0  0  0
   20.9793   26.1009   36.8405 C   0  0  0  0  0  0  0  0  0  0  0  0
   20.9143   26.7881   35.7094 C   0  0  0  0  0  0  0  0  0  0  0  0
   20.0671   27.9658   35.3983 C   0  0  2  0  0  0  0  0  0  0  0  0
   19.1142   27.6195   34.4562 F   0  0  0  0  0  0  0  0  0  0  0  0
   21.1369   28.9652   34.8506 C   0  0  2  0  0  0  0  0  0  0  0  0
   20.9797   29.4361   33.3971 C   0  0  0  0  0  0  0  0  0  0  0  0
   22.3484   29.5641   32.8646 N   0  0  0  0  0  0  0  0  0  0  0  0
   23.1493   28.5230   33.5309 C   0  0  0  0  0  0  0  0  0  0  0  0
   22.4072   28.1805   34.7757 C   0  0  0  0  0  0  0  0  0  0  0  0
   22.2275   26.9267   35.1722 C   0  0  0  0  0  0  0  0  0  0  0  0
   22.3798   29.4323   31.4010 C   0  0  0  0  0  0  0  0  0  0  0  0
   21.3244   30.1576   35.8066 C   0  0  0  0  0  0  0  0  0  0  0  0
  1  2  1  0
  2  3  2  0
  2  4  1  0
  4  5  2  0
  5  6  1  0
  6  7  2  0
  7  8  1  0
  8  9  2  0
  9 10  1  0
 10 11  2  0
 11 12  1  0
 12 13  2  0
 13 14  1  0
  1 15  1  0
 15 16  2  0
 16 17  1  0
 17 18  2  0
 18 19  1  0
 19 20  1  6
 19 21  1  0
 21 22  1  0
 22 23  1  0
 23 24  1  0
 24 25  1  0
 25 26  2  0
 23 27  1  0
 21 28  1  1
 13  4  1  0
 26 15  1  0
 12  7  1  0
 26 18  1  0
 25 21  1  0
M  END
>  <AAScore>  (1) 
275.70931213509004

>  <RootName>  (1) 
./4ZLY/04_DeltaGEst/trajectory_00/rank_00/lead_0468

$$$$
