confid_14
     RDKit          3D

 29 32  0  0  0  0  0  0  0  0999 V2000
   24.5700   26.8800   35.5900 N   0  0  0  0  0  0  0  0  0  0  0  0
   25.5000   26.4000   34.6900 C   0  0  0  0  0  0  0  0  0  0  0  0
   25.1700   25.5200   33.9100 O   0  0  0  0  0  0  0  0  0  0  0  0
   26.8400   27.0200   34.7400 C   0  0  0  0  0  0  0  0  0  0  0  0
   27.3800   27.2800   35.9400 N   0  0  0  0  0  0  0  0  0  0  0  0
   28.6200   27.7400   36.0300 N   0  0  0  0  0  0  0  0  0  0  0  0
   29.3800   28.0000   34.9600 C   0  0  0  0  0  0  0  0  0  0  0  0
   30.6700   28.5000   35.1300 C   0  0  0  0  0  0  0  0  0  0  0  0
   31.5400   28.6100   34.0300 C   0  0  0  0  0  0  0  0  0  0  0  0
   31.0900   28.2200   32.7700 C   0  0  0  0  0  0  0  0  0  0  0  0
   29.8000   27.7000   32.6000 C   0  0  0  0  0  0  0  0  0  0  0  0
   28.9600   27.5500   33.7100 C   0  0  0  0  0  0  0  0  0  0  0  0
   27.6600   27.0300   33.5900 C   0  0  0  0  0  0  0  0  0  0  0  0
   27.1600   26.7400   32.3400 N   0  0  0  0  0  0  0  0  0  0  0  0
   23.2381   26.3833   35.7860 C   0  0  0  0  0  0  0  0  0  0  0  0
   23.0779   25.2110   36.3410 N   0  0  0  0  0  0  0  0  0  0  0  0
   21.8848   24.7277   36.9782 C   0  0  0  0  0  0  0  0  0  0  0  0
   20.7026   24.5257   36.3642 C   0  0  0  0  0  0  0  0  0  0  0  0
   19.4783   24.3016   37.2445 C   0  0  0  0  0  0  0  0  0  0  0  0
   18.4651   23.4131   36.6327 N   0  0  0  0  0  0  0  0  0  0  0  0
   18.1787   23.7481   35.2236 C   0  0  0  0  0  0  0  0  0  0  0  0
   19.4451   23.7368   34.3547 C   0  0  0  0  0  0  0  0  0  0  0  0
   20.5076   24.7322   34.8761 C   0  0  1  0  0  0  0  0  0  0  0  0
   20.0992   26.2003   34.5612 C   0  0  0  0  0  0  0  0  0  0  0  0
   21.2994   27.1379   34.3494 C   0  0  1  0  0  0  0  0  0  0  0  0
   20.8553   28.3630   33.8262 O   0  0  0  0  0  0  0  0  0  0  0  0
   22.1035   27.3736   35.6430 C   0  0  0  0  0  0  0  0  0  0  0  0
   18.6945   21.9673   36.8618 C   0  0  0  0  0  0  0  0  0  0  0  0
   17.3789   21.2809   37.2195 C   0  0  0  0  0  0  0  0  0  0  0  0
  1  2  1  0
  2  3  2  0
  2  4  1  0
  4  5  2  0
  5  6  1  0
  6  7  2  0
  7  8  1  0
  8  9  2  0
  9 10  1  0
 10 11  2  0
 11 12  1  0
 12 13  2  0
 13 14  1  0
  1 15  1  0
 15 16  2  0
 16 17  1  0
 17 18  2  0
 18 19  1  0
 19 20  1  0
 20 21  1  0
 21 22  1  0
 23 22  1  1
 23 24  1  0
 24 25  1  0
 25 26  1  1
 25 27  1  0
 20 28  1  0
 28 29  1  0
 13  4  1  0
 27 15  1  0
 12  7  1  0
 23 18  1  0
M  END
>  <AAScore>  (1) 
3697.7463227691

>  <RootName>  (1) 
./4ZLY/04_DeltaGEst/trajectory_05/rank_00/lead_0071

$$$$
