confid_8
     RDKit          3D

 27 30  0  0  0  0  0  0  0  0999 V2000
   24.4800   26.1000   36.1300 N   0  0  0  0  0  0  0  0  0  0  0  0
   25.2500   26.2500   34.9900 C   0  0  0  0  0  0  0  0  0  0  0  0
   24.7400   25.7600   33.9900 O   0  0  0  0  0  0  0  0  0  0  0  0
   26.5900   26.8900   34.9600 C   0  0  0  0  0  0  0  0  0  0  0  0
   27.0600   27.2400   36.1600 N   0  0  0  0  0  0  0  0  0  0  0  0
   28.3000   27.7100   36.2400 N   0  0  0  0  0  0  0  0  0  0  0  0
   29.0500   27.9600   35.1500 C   0  0  0  0  0  0  0  0  0  0  0  0
   30.3400   28.4900   35.2600 C   0  0  0  0  0  0  0  0  0  0  0  0
   31.1100   28.8200   34.1400 C   0  0  0  0  0  0  0  0  0  0  0  0
   30.5200   28.6700   32.8800 C   0  0  0  0  0  0  0  0  0  0  0  0
   29.2900   28.0200   32.7700 C   0  0  0  0  0  0  0  0  0  0  0  0
   28.5200   27.7100   33.8900 C   0  0  0  0  0  0  0  0  0  0  0  0
   27.2700   27.0800   33.7600 C   0  0  0  0  0  0  0  0  0  0  0  0
   26.7500   26.8800   32.4900 N   0  0  0  0  0  0  0  0  0  0  0  0
   23.4949   25.0729   36.3471 C   0  0  0  0  0  0  0  0  0  0  0  0
   22.7624   25.1101   37.4345 N   0  0  0  0  0  0  0  0  0  0  0  0
   21.7107   24.1599   37.7169 C   0  0  0  0  0  0  0  0  0  0  0  0
   21.9749   22.8377   37.7470 C   0  0  0  0  0  0  0  0  0  0  0  0
   23.3783   22.3852   38.1184 C   0  0  0  0  0  0  0  0  0  0  0  0
   23.9277   23.2063   39.0923 F   0  0  0  0  0  0  0  0  0  0  0  0
   23.2975   21.1046   38.6389 F   0  0  0  0  0  0  0  0  0  0  0  0
   24.2810   22.3657   36.8512 C   0  0  0  0  0  0  0  0  0  0  0  0
   23.4801   22.7628   35.6196 C   0  0  0  0  0  0  0  0  0  0  0  0
   23.2798   24.0296   35.3710 N   0  0  0  0  0  0  0  0  0  0  0  0
   22.2507   21.8944   35.4549 C   0  0  0  0  0  0  0  0  0  0  0  0
   21.4071   22.0690   36.6625 N   0  0  0  0  0  0  0  0  0  0  0  0
   19.9883   21.7280   36.6386 C   0  0  0  0  0  0  0  0  0  0  0  0
  1  2  1  0
  2  3  2  0
  2  4  1  0
  4  5  2  0
  5  6  1  0
  6  7  2  0
  7  8  1  0
  8  9  2  0
  9 10  1  0
 10 11  2  0
 11 12  1  0
 12 13  2  0
 13 14  1  0
  1 15  1  0
 15 16  2  0
 16 17  1  0
 17 18  2  0
 18 19  1  0
 19 20  1  0
 19 21  1  0
 19 22  1  0
 22 23  1  0
 23 24  2  0
 23 25  1  0
 25 26  1  0
 26 27  1  0
 13  4  1  0
 24 15  1  0
 12  7  1  0
 26 18  1  0
M  END
>  <AAScore>  (1) 
1367.821654793731

>  <RootName>  (1) 
./4ZLY/04_DeltaGEst/trajectory_00/rank_00/lead_0435

$$$$
