confid_18
     RDKit          3D

 27 30  0  0  0  0  0  0  0  0999 V2000
   24.2000   26.2400   35.6900 N   0  0  0  0  0  0  0  0  0  0  0  0
   24.8500   26.2800   34.4800 C   0  0  0  0  0  0  0  0  0  0  0  0
   24.3100   25.7400   33.5400 O   0  0  0  0  0  0  0  0  0  0  0  0
   26.1800   26.9700   34.4700 C   0  0  0  0  0  0  0  0  0  0  0  0
   26.6500   27.6000   35.5500 N   0  0  0  0  0  0  0  0  0  0  0  0
   27.7900   28.2700   35.6200 N   0  0  0  0  0  0  0  0  0  0  0  0
   28.5400   28.3000   34.5100 C   0  0  0  0  0  0  0  0  0  0  0  0
   29.7700   28.9400   34.5600 C   0  0  0  0  0  0  0  0  0  0  0  0
   30.7000   28.8900   33.5000 C   0  0  0  0  0  0  0  0  0  0  0  0
   30.3700   28.1400   32.3700 C   0  0  0  0  0  0  0  0  0  0  0  0
   29.1200   27.5200   32.2800 C   0  0  0  0  0  0  0  0  0  0  0  0
   28.2100   27.6100   33.3300 C   0  0  0  0  0  0  0  0  0  0  0  0
   26.9700   26.9700   33.3100 C   0  0  0  0  0  0  0  0  0  0  0  0
   26.5300   26.2400   32.2200 N   0  0  0  0  0  0  0  0  0  0  0  0
   22.8017   25.9460   35.8668 C   0  0  0  0  0  0  0  0  0  0  0  0
   21.9706   25.8077   34.7991 N   0  0  0  0  0  0  0  0  0  0  0  0
   20.6456   25.5418   34.9482 C   0  0  0  0  0  0  0  0  0  0  0  0
   19.8331   25.2960   33.7030 C   0  0  0  0  0  0  0  0  0  0  0  0
   19.8734   23.8147   33.2954 C   0  0  0  0  0  0  0  0  0  0  0  0
   19.6661   22.9146   34.4514 N   0  0  0  0  0  0  0  0  0  0  0  0
   18.2982   23.0165   35.0129 C   0  0  0  0  0  0  0  0  0  0  0  0
   18.3578   23.5643   36.4456 C   0  0  0  0  0  0  0  0  0  0  0  0
   18.6550   25.0707   36.5192 C   0  0  0  0  0  0  0  0  0  0  0  0
   20.1108   25.3952   36.2502 C   0  0  0  0  0  0  0  0  0  0  0  0
   20.9910   25.5373   37.3327 C   0  0  0  0  0  0  0  0  0  0  0  0
   22.3027   25.8108   37.1219 N   0  0  0  0  0  0  0  0  0  0  0  0
   19.9886   21.5276   34.0763 C   0  0  0  0  0  0  0  0  0  0  0  0
  1  2  1  0
  2  3  2  0
  2  4  1  0
  4  5  2  0
  5  6  1  0
  6  7  2  0
  7  8  1  0
  8  9  2  0
  9 10  1  0
 10 11  2  0
 11 12  1  0
 12 13  2  0
 13 14  1  0
  1 15  1  0
 15 16  2  0
 16 17  1  0
 17 18  1  0
 18 19  1  0
 19 20  1  0
 20 21  1  0
 21 22  1  0
 22 23  1  0
 23 24  1  0
 24 25  1  0
 25 26  2  0
 20 27  1  0
 13  4  1  0
 26 15  1  0
 12  7  1  0
 24 17  2  0
M  END
>  <AAScore>  (1) 
494.2364062893933

>  <RootName>  (1) 
./4ZLY/04_DeltaGEst/trajectory_04/rank_00/lead_0037

$$$$
