confid_10
     RDKit          3D

 27 30  0  0  0  0  0  0  0  0999 V2000
   25.3300   26.2600   34.7600 N   0  0  0  0  0  0  0  0  0  0  0  0
   26.1200   25.9200   33.6900 C   0  0  0  0  0  0  0  0  0  0  0  0
   25.6300   25.1100   32.9400 O   0  0  0  0  0  0  0  0  0  0  0  0
   27.5200   26.3800   33.4600 C   0  0  0  0  0  0  0  0  0  0  0  0
   28.1600   26.6300   34.6100 N   0  0  0  0  0  0  0  0  0  0  0  0
   29.4800   26.8500   34.5700 N   0  0  0  0  0  0  0  0  0  0  0  0
   30.1900   26.7800   33.4400 C   0  0  0  0  0  0  0  0  0  0  0  0
   31.5600   27.0500   33.5000 C   0  0  0  0  0  0  0  0  0  0  0  0
   32.2700   27.2400   32.3100 C   0  0  0  0  0  0  0  0  0  0  0  0
   31.6100   27.2500   31.0800 C   0  0  0  0  0  0  0  0  0  0  0  0
   30.2700   26.8700   31.0600 C   0  0  0  0  0  0  0  0  0  0  0  0
   29.5100   26.6900   32.2300 C   0  0  0  0  0  0  0  0  0  0  0  0
   28.1400   26.4100   32.2000 C   0  0  0  0  0  0  0  0  0  0  0  0
   27.4300   26.1300   31.0500 N   0  0  0  0  0  0  0  0  0  0  0  0
   23.9562   25.8810   34.9765 C   0  0  0  0  0  0  0  0  0  0  0  0
   23.2607   25.1723   34.0468 N   0  0  0  0  0  0  0  0  0  0  0  0
   21.9620   24.8352   34.2454 C   0  0  0  0  0  0  0  0  0  0  0  0
   21.3054   25.2240   35.4192 C   0  0  0  0  0  0  0  0  0  0  0  0
   19.8851   24.7885   35.6691 C   0  0  0  0  0  0  0  0  0  0  0  0
   19.8711   23.4828   36.4681 C   0  0  0  0  0  0  0  0  0  0  0  0
   20.9195   23.4809   37.5157 N   0  0  0  0  0  0  0  0  0  0  0  0
   21.1975   22.0954   37.9321 C   0  0  0  0  0  0  0  0  0  0  0  0
   20.5279   24.2873   38.6919 C   0  0  0  0  0  0  0  0  0  0  0  0
   20.7031   25.7839   38.5325 C   0  0  0  0  0  0  0  0  0  0  0  0
   21.4369   26.4565   37.6273 C   0  0  0  0  0  0  0  0  0  0  0  0
   22.0485   25.9223   36.3935 C   0  0  0  0  0  0  0  0  0  0  0  0
   23.3387   26.2567   36.1278 N   0  0  0  0  0  0  0  0  0  0  0  0
  1  2  1  0
  2  3  2  0
  2  4  1  0
  4  5  2  0
  5  6  1  0
  6  7  2  0
  7  8  1  0
  8  9  2  0
  9 10  1  0
 10 11  2  0
 11 12  1  0
 12 13  2  0
 13 14  1  0
  1 15  1  0
 15 16  2  0
 16 17  1  0
 17 18  2  0
 18 19  1  0
 19 20  1  0
 20 21  1  0
 21 22  1  0
 21 23  1  0
 23 24  1  0
 24 25  2  0
 25 26  1  0
 26 27  2  0
 13  4  1  0
 27 15  1  0
 12  7  1  0
 26 18  1  0
M  END
>  <AAScore>  (1) 
6136.3017104594965

>  <RootName>  (1) 
./4ZLY/04_DeltaGEst/trajectory_03/rank_00/lead_0330

$$$$
