confid_1
     RDKit          3D

 29 31  0  0  0  0  0  0  0  0999 V2000
   24.5500   26.3900   36.2500 N   0  0  0  0  0  0  0  0  0  0  0  0
   25.6000   26.1300   35.4000 C   0  0  0  0  0  0  0  0  0  0  0  0
   25.4300   25.4300   34.4200 O   0  0  0  0  0  0  0  0  0  0  0  0
   26.9800   26.6300   35.7100 C   0  0  0  0  0  0  0  0  0  0  0  0
   27.3200   26.8200   36.9800 N   0  0  0  0  0  0  0  0  0  0  0  0
   28.4700   27.4000   37.3100 N   0  0  0  0  0  0  0  0  0  0  0  0
   29.4000   27.6300   36.3700 C   0  0  0  0  0  0  0  0  0  0  0  0
   30.6600   28.0500   36.8000 C   0  0  0  0  0  0  0  0  0  0  0  0
   31.5700   28.3600   35.7800 C   0  0  0  0  0  0  0  0  0  0  0  0
   31.3700   28.1000   34.4300 C   0  0  0  0  0  0  0  0  0  0  0  0
   30.1200   27.5900   34.0500 C   0  0  0  0  0  0  0  0  0  0  0  0
   29.1500   27.3400   35.0300 C   0  0  0  0  0  0  0  0  0  0  0  0
   27.8800   26.8900   34.6600 C   0  0  0  0  0  0  0  0  0  0  0  0
   27.4800   26.6100   33.3700 N   0  0  0  0  0  0  0  0  0  0  0  0
   23.1668   25.9330   36.0438 C   0  0  0  0  0  0  0  0  0  0  0  0
   22.5559   26.5712   34.7778 C   0  0  0  0  0  0  0  0  0  0  0  0
   21.1300   26.0529   34.5424 C   0  0  0  0  0  0  0  0  0  0  0  0
   21.0507   24.5883   34.6757 N   0  0  0  0  0  0  0  0  0  0  0  0
   19.7692   23.9253   34.7007 C   0  0  0  0  0  0  0  0  0  0  0  0
   19.6269   22.8669   35.3725 O   0  0  0  0  0  0  0  0  0  0  0  0
   18.5861   24.4406   33.9072 C   0  0  0  0  0  0  0  0  0  0  0  0
   18.4838   23.8417   32.5563 N   0  0  0  0  0  0  0  0  0  0  0  0
   18.3420   22.3709   32.6024 C   0  0  0  0  0  0  0  0  0  0  0  0
   17.7201   21.8606   31.3306 C   0  0  0  0  0  0  0  0  0  0  0  0
   18.4479   20.8687   30.4733 C   0  0  0  0  0  0  0  0  0  0  0  0
   16.6055   22.2423   31.0061 O   0  0  0  0  0  0  0  0  0  0  0  0
   19.6005   24.2554   31.6881 C   0  0  0  0  0  0  0  0  0  0  0  0
   22.2842   23.8156   34.8790 C   0  0  0  0  0  0  0  0  0  0  0  0
   23.0694   24.3818   36.0673 C   0  0  0  0  0  0  0  0  0  0  0  0
  1  2  1  0
  2  3  2  0
  2  4  1  0
  4  5  2  0
  5  6  1  0
  6  7  2  0
  7  8  1  0
  8  9  2  0
  9 10  1  0
 10 11  2  0
 11 12  1  0
 12 13  2  0
 13 14  1  0
  1 15  1  0
 15 16  1  0
 16 17  1  0
 17 18  1  0
 18 19  1  0
 19 20  2  0
 19 21  1  0
 21 22  1  0
 22 23  1  0
 23 24  1  0
 24 25  1  0
 24 26  2  0
 22 27  1  0
 18 28  1  0
 28 29  1  0
 13  4  1  0
 29 15  1  0
 12  7  1  0
M  END
>  <AAScore>  (1) 
674.7853941225203

>  <RootName>  (1) 
./4ZLY/04_DeltaGEst/trajectory_01/rank_00/lead_0082

$$$$
