confid_3
     RDKit          3D

 27 30  0  0  0  0  0  0  0  0999 V2000
   24.6900   26.1200   35.5300 N   0  0  0  0  0  0  0  0  0  0  0  0
   25.6600   25.6700   34.6600 C   0  0  0  0  0  0  0  0  0  0  0  0
   25.2400   25.0100   33.7200 O   0  0  0  0  0  0  0  0  0  0  0  0
   27.0300   26.2200   34.8800 C   0  0  0  0  0  0  0  0  0  0  0  0
   27.3500   26.7300   36.0700 N   0  0  0  0  0  0  0  0  0  0  0  0
   28.5700   27.1800   36.3300 N   0  0  0  0  0  0  0  0  0  0  0  0
   29.5300   27.1100   35.3900 C   0  0  0  0  0  0  0  0  0  0  0  0
   30.8300   27.5700   35.6500 C   0  0  0  0  0  0  0  0  0  0  0  0
   31.8500   27.5400   34.6900 C   0  0  0  0  0  0  0  0  0  0  0  0
   31.5100   27.1200   33.4000 C   0  0  0  0  0  0  0  0  0  0  0  0
   30.2200   26.6300   33.1100 C   0  0  0  0  0  0  0  0  0  0  0  0
   29.2400   26.6600   34.1000 C   0  0  0  0  0  0  0  0  0  0  0  0
   27.9300   26.2600   33.8100 C   0  0  0  0  0  0  0  0  0  0  0  0
   27.5200   25.7100   32.6100 N   0  0  0  0  0  0  0  0  0  0  0  0
   31.1839   28.0737   37.0011 C   0  0  0  0  0  0  0  0  0  0  0  0
   31.7454   29.3484   37.1543 C   0  0  0  0  0  0  0  0  0  0  0  0
   32.0966   29.8435   38.4173 C   0  0  0  0  0  0  0  0  0  0  0  0
   32.6453   31.1358   38.4469 O   0  0  0  0  0  0  0  0  0  0  0  0
   33.0595   31.8548   39.6019 C   0  0  0  0  0  0  0  0  0  0  0  0
   31.9075   31.9870   40.5927 C   0  0  0  0  0  0  0  0  0  0  0  0
   31.7670   30.7380   41.4007 C   0  0  0  0  0  0  0  0  0  0  0  0
   31.2543   30.8086   42.5506 O   0  0  0  0  0  0  0  0  0  0  0  0
   32.2302   29.4726   40.9011 N   0  0  0  0  0  0  0  0  0  0  0  0
   31.8869   29.0334   39.5682 C   0  0  0  0  0  0  0  0  0  0  0  0
   31.3275   27.7519   39.3986 C   0  0  0  0  0  0  0  0  0  0  0  0
   30.9836   27.2771   38.1339 C   0  0  0  0  0  0  0  0  0  0  0  0
   32.8197   28.5280   41.8544 C   0  0  0  0  0  0  0  0  0  0  0  0
  1  2  1  0
  2  3  2  0
  2  4  1  0
  4  5  2  0
  5  6  1  0
  6  7  2  0
  7  8  1  0
  8  9  2  0
  9 10  1  0
 10 11  2  0
 11 12  1  0
 12 13  2  0
 13 14  1  0
  8 15  1  0
 15 16  2  0
 16 17  1  0
 17 18  1  0
 18 19  1  0
 19 20  1  0
 20 21  1  0
 21 22  2  0
 21 23  1  0
 23 24  1  0
 24 25  1  0
 25 26  2  0
 23 27  1  0
 13  4  1  0
 26 15  1  0
 12  7  1  0
 24 17  2  0
M  END
>  <AAScore>  (1) 
23.41172402807965

>  <RootName>  (1) 
./4ZLY/04_DeltaGEst/trajectory_02/rank_01/lead_0135

$$$$
