confid_11
     RDKit          3D

 27 30  0  0  0  0  0  0  0  0999 V2000
   24.6900   26.1200   35.5300 N   0  0  0  0  0  0  0  0  0  0  0  0
   25.6600   25.6700   34.6600 C   0  0  0  0  0  0  0  0  0  0  0  0
   25.2400   25.0100   33.7200 O   0  0  0  0  0  0  0  0  0  0  0  0
   27.0300   26.2200   34.8800 C   0  0  0  0  0  0  0  0  0  0  0  0
   27.3500   26.7300   36.0700 N   0  0  0  0  0  0  0  0  0  0  0  0
   28.5700   27.1800   36.3300 N   0  0  0  0  0  0  0  0  0  0  0  0
   29.5300   27.1100   35.3900 C   0  0  0  0  0  0  0  0  0  0  0  0
   30.8300   27.5700   35.6500 C   0  0  0  0  0  0  0  0  0  0  0  0
   31.8500   27.5400   34.6900 C   0  0  0  0  0  0  0  0  0  0  0  0
   31.5100   27.1200   33.4000 C   0  0  0  0  0  0  0  0  0  0  0  0
   30.2200   26.6300   33.1100 C   0  0  0  0  0  0  0  0  0  0  0  0
   29.2400   26.6600   34.1000 C   0  0  0  0  0  0  0  0  0  0  0  0
   27.9300   26.2600   33.8100 C   0  0  0  0  0  0  0  0  0  0  0  0
   27.5200   25.7100   32.6100 N   0  0  0  0  0  0  0  0  0  0  0  0
   23.2918   26.2753   35.2203 C   0  0  0  0  0  0  0  0  0  0  0  0
   22.3792   26.1686   36.2351 N   0  0  0  0  0  0  0  0  0  0  0  0
   21.0411   26.3299   36.0336 C   0  0  0  0  0  0  0  0  0  0  0  0
   20.5882   26.6249   34.7515 C   0  0  0  0  0  0  0  0  0  0  0  0
   19.1916   26.8082   34.2918 C   0  0  0  0  0  0  0  0  0  0  0  0
   19.3454   27.0398   32.8530 N   0  0  0  0  0  0  0  0  0  0  0  0
   18.2420   27.0836   31.9309 C   0  0  0  0  0  0  0  0  0  0  0  0
   18.4566   27.0351   30.6890 O   0  0  0  0  0  0  0  0  0  0  0  0
   16.8312   27.1636   32.4255 C   0  0  0  0  0  0  0  0  0  0  0  0
   20.7573   27.0646   32.4443 C   0  0  2  0  0  0  0  0  0  0  0  0
   21.4759   26.7619   33.7146 C   0  0  0  0  0  0  0  0  0  0  0  0
   22.8464   26.5955   33.9169 C   0  0  0  0  0  0  0  0  0  0  0  0
   21.1439   28.4466   31.9076 C   0  0  0  0  0  0  0  0  0  0  0  0
  1  2  1  0
  2  3  2  0
  2  4  1  0
  4  5  2  0
  5  6  1  0
  6  7  2  0
  7  8  1  0
  8  9  2  0
  9 10  1  0
 10 11  2  0
 11 12  1  0
 12 13  2  0
 13 14  1  0
  1 15  1  0
 15 16  2  0
 16 17  1  0
 17 18  2  0
 18 19  1  0
 19 20  1  0
 20 21  1  0
 21 22  2  0
 21 23  1  0
 20 24  1  0
 24 25  1  0
 25 26  2  0
 24 27  1  1
 13  4  1  0
 26 15  1  0
 12  7  1  0
 25 18  1  0
M  END
>  <AAScore>  (1) 
254.7520759731143

>  <RootName>  (1) 
./4ZLY/04_DeltaGEst/trajectory_02/rank_00/lead_0183

$$$$
