confid_10
     RDKit          3D

 28 31  0  0  0  0  0  0  0  0999 V2000
   25.3300   26.2600   34.7600 N   0  0  0  0  0  0  0  0  0  0  0  0
   26.1200   25.9200   33.6900 C   0  0  0  0  0  0  0  0  0  0  0  0
   25.6300   25.1100   32.9400 O   0  0  0  0  0  0  0  0  0  0  0  0
   27.5200   26.3800   33.4600 C   0  0  0  0  0  0  0  0  0  0  0  0
   28.1600   26.6300   34.6100 N   0  0  0  0  0  0  0  0  0  0  0  0
   29.4800   26.8500   34.5700 N   0  0  0  0  0  0  0  0  0  0  0  0
   30.1900   26.7800   33.4400 C   0  0  0  0  0  0  0  0  0  0  0  0
   31.5600   27.0500   33.5000 C   0  0  0  0  0  0  0  0  0  0  0  0
   32.2700   27.2400   32.3100 C   0  0  0  0  0  0  0  0  0  0  0  0
   31.6100   27.2500   31.0800 C   0  0  0  0  0  0  0  0  0  0  0  0
   30.2700   26.8700   31.0600 C   0  0  0  0  0  0  0  0  0  0  0  0
   29.5100   26.6900   32.2300 C   0  0  0  0  0  0  0  0  0  0  0  0
   28.1400   26.4100   32.2000 C   0  0  0  0  0  0  0  0  0  0  0  0
   27.4300   26.1300   31.0500 N   0  0  0  0  0  0  0  0  0  0  0  0
   26.5165   27.1332   30.4955 C   0  0  0  0  0  0  0  0  0  0  0  0
   26.6407   27.1624   28.9698 C   0  0  0  0  0  0  0  0  0  0  0  0
   26.5734   25.8095   28.3873 N   0  0  0  0  0  0  0  0  0  0  0  0
   26.3419   25.6390   26.9699 C   0  0  0  0  0  0  0  0  0  0  0  0
   26.6744   26.6472   26.0460 C   0  0  0  0  0  0  0  0  0  0  0  0
   26.4275   26.4511   24.6801 C   0  0  0  0  0  0  0  0  0  0  0  0
   26.8157   27.5031   23.6816 C   0  0  0  0  0  0  0  0  0  0  0  0
   28.1402   27.2938   23.2802 O   0  0  0  0  0  0  0  0  0  0  0  0
   25.8776   25.2375   24.2492 C   0  0  0  0  0  0  0  0  0  0  0  0
   25.5567   24.2536   25.1900 C   0  0  0  0  0  0  0  0  0  0  0  0
   24.9725   22.9490   24.7508 C   0  0  0  0  0  0  0  0  0  0  0  0
   25.7969   24.4774   26.5097 N   0  0  0  0  0  0  0  0  0  0  0  0
   26.5681   24.6318   29.2707 C   0  0  0  0  0  0  0  0  0  0  0  0
   27.5678   24.8106   30.4186 C   0  0  0  0  0  0  0  0  0  0  0  0
  1  2  1  0
  2  3  2  0
  2  4  1  0
  4  5  2  0
  5  6  1  0
  6  7  2  0
  7  8  1  0
  8  9  2  0
  9 10  1  0
 10 11  2  0
 11 12  1  0
 12 13  2  0
 13 14  1  0
 14 15  1  0
 15 16  1  0
 16 17  1  0
 17 18  1  0
 18 19  2  0
 19 20  1  0
 20 21  1  0
 21 22  1  0
 20 23  2  0
 23 24  1  0
 24 25  1  0
 24 26  2  0
 17 27  1  0
 27 28  1  0
 13  4  1  0
 28 14  1  0
 12  7  1  0
 26 18  1  0
M  END
>  <AAScore>  (1) 
8.48472700347894

>  <RootName>  (1) 
./4ZLY/04_DeltaGEst/trajectory_03/rank_01/lead_0304

$$$$
