confid_2
     RDKit          3D

 27 30  0  0  0  0  0  0  0  0999 V2000
   24.4800   26.1000   36.1300 N   0  0  0  0  0  0  0  0  0  0  0  0
   25.2500   26.2500   34.9900 C   0  0  0  0  0  0  0  0  0  0  0  0
   24.7400   25.7600   33.9900 O   0  0  0  0  0  0  0  0  0  0  0  0
   26.5900   26.8900   34.9600 C   0  0  0  0  0  0  0  0  0  0  0  0
   27.0600   27.2400   36.1600 N   0  0  0  0  0  0  0  0  0  0  0  0
   28.3000   27.7100   36.2400 N   0  0  0  0  0  0  0  0  0  0  0  0
   29.0500   27.9600   35.1500 C   0  0  0  0  0  0  0  0  0  0  0  0
   30.3400   28.4900   35.2600 C   0  0  0  0  0  0  0  0  0  0  0  0
   31.1100   28.8200   34.1400 C   0  0  0  0  0  0  0  0  0  0  0  0
   30.5200   28.6700   32.8800 C   0  0  0  0  0  0  0  0  0  0  0  0
   29.2900   28.0200   32.7700 C   0  0  0  0  0  0  0  0  0  0  0  0
   28.5200   27.7100   33.8900 C   0  0  0  0  0  0  0  0  0  0  0  0
   27.2700   27.0800   33.7600 C   0  0  0  0  0  0  0  0  0  0  0  0
   26.7500   26.8800   32.4900 N   0  0  0  0  0  0  0  0  0  0  0  0
   23.4665   25.0984   36.3333 C   0  0  0  0  0  0  0  0  0  0  0  0
   22.6704   25.1685   37.4306 N   0  0  0  0  0  0  0  0  0  0  0  0
   21.7172   24.2326   37.6673 C   0  0  0  0  0  0  0  0  0  0  0  0
   21.5291   23.1711   36.7795 C   0  0  0  0  0  0  0  0  0  0  0  0
   20.4853   22.2688   37.0498 O   0  0  0  0  0  0  0  0  0  0  0  0
   19.9636   21.2742   36.1661 C   0  0  0  0  0  0  0  0  0  0  0  0
   19.7562   21.8256   34.7466 C   0  0  0  0  0  0  0  0  0  0  0  0
   19.2508   23.1139   34.8256 F   0  0  0  0  0  0  0  0  0  0  0  0
   18.8140   21.0425   34.1001 F   0  0  0  0  0  0  0  0  0  0  0  0
   21.0503   21.8305   33.9032 C   0  0  0  0  0  0  0  0  0  0  0  0
   22.3598   21.9349   34.7002 C   0  0  0  0  0  0  0  0  0  0  0  0
   22.3830   23.0924   35.6562 C   0  0  0  0  0  0  0  0  0  0  0  0
   23.3254   24.0560   35.4715 N   0  0  0  0  0  0  0  0  0  0  0  0
  1  2  1  0
  2  3  2  0
  2  4  1  0
  4  5  2  0
  5  6  1  0
  6  7  2  0
  7  8  1  0
  8  9  2  0
  9 10  1  0
 10 11  2  0
 11 12  1  0
 12 13  2  0
 13 14  1  0
  1 15  1  0
 15 16  2  0
 16 17  1  0
 17 18  2  0
 18 19  1  0
 19 20  1  0
 20 21  1  0
 21 22  1  0
 21 23  1  0
 21 24  1  0
 24 25  1  0
 25 26  1  0
 26 27  2  0
 13  4  1  0
 27 15  1  0
 12  7  1  0
 26 18  1  0
M  END
>  <AAScore>  (1) 
168.9750423864374

>  <RootName>  (1) 
./4ZLY/04_DeltaGEst/trajectory_00/rank_00/lead_0181

$$$$
