confid_5
     RDKit          3D

 26 27  0  0  0  0  0  0  0  0999 V2000
   24.5700   26.8800   35.5900 N   0  0  0  0  0  0  0  0  0  0  0  0
   25.5000   26.4000   34.6900 C   0  0  0  0  0  0  0  0  0  0  0  0
   25.1700   25.5200   33.9100 O   0  0  0  0  0  0  0  0  0  0  0  0
   26.8400   27.0200   34.7400 C   0  0  0  0  0  0  0  0  0  0  0  0
   27.3800   27.2800   35.9400 N   0  0  0  0  0  0  0  0  0  0  0  0
   28.6200   27.7400   36.0300 N   0  0  0  0  0  0  0  0  0  0  0  0
   29.3800   28.0000   34.9600 C   0  0  0  0  0  0  0  0  0  0  0  0
   30.6700   28.5000   35.1300 C   0  0  0  0  0  0  0  0  0  0  0  0
   31.5400   28.6100   34.0300 C   0  0  0  0  0  0  0  0  0  0  0  0
   31.0900   28.2200   32.7700 C   0  0  0  0  0  0  0  0  0  0  0  0
   29.8000   27.7000   32.6000 C   0  0  0  0  0  0  0  0  0  0  0  0
   28.9600   27.5500   33.7100 C   0  0  0  0  0  0  0  0  0  0  0  0
   27.6600   27.0300   33.5900 C   0  0  0  0  0  0  0  0  0  0  0  0
   27.1600   26.7400   32.3400 N   0  0  0  0  0  0  0  0  0  0  0  0
   33.1576   29.2718   34.2455 S   0  0  0  0  0  6  0  0  0  0  0  0
   34.0290   28.8508   33.0945 O   0  0  0  0  0  0  0  0  0  0  0  0
   33.7426   28.7191   35.5154 O   0  0  0  0  0  0  0  0  0  0  0  0
   33.0617   31.0671   34.3509 C   0  0  1  0  0  0  0  0  0  0  0  0
   34.3515   31.7190   34.9283 C   0  0  0  0  0  0  0  0  0  0  0  0
   35.7233   31.3168   34.3215 C   0  0  0  0  0  0  0  0  0  0  0  0
   35.9126   31.8179   32.8822 C   0  0  0  0  0  0  0  0  0  0  0  0
   36.8512   31.8696   35.2070 C   0  0  0  0  0  0  0  0  0  0  0  0
   32.5109   31.7052   33.0528 C   0  0  0  0  0  0  0  0  0  0  0  0
   31.1498   31.4682   32.9704 F   0  0  0  0  0  0  0  0  0  0  0  0
   33.1007   31.1731   31.9241 F   0  0  0  0  0  0  0  0  0  0  0  0
   32.7040   33.0751   33.0561 F   0  0  0  0  0  0  0  0  0  0  0  0
  1  2  1  0
  2  3  2  0
  2  4  1  0
  4  5  2  0
  5  6  1  0
  6  7  2  0
  7  8  1  0
  8  9  2  0
  9 10  1  0
 10 11  2  0
 11 12  1  0
 12 13  2  0
 13 14  1  0
  9 15  1  0
 15 16  2  0
 15 17  2  0
 15 18  1  0
 18 19  1  6
 19 20  1  0
 20 21  1  0
 20 22  1  0
 18 23  1  0
 23 24  1  0
 23 25  1  0
 23 26  1  0
 13  4  1  0
 12  7  1  0
M  END
>  <AAScore>  (1) 
-5.452777440254518

>  <RootName>  (1) 
./4ZLY/04_DeltaGEst/trajectory_05/rank_01/lead_0299

$$$$
