confid_16
     RDKit          3D

 28 31  0  0  0  0  0  0  0  0999 V2000
   24.4800   26.1000   36.1300 N   0  0  0  0  0  0  0  0  0  0  0  0
   25.2500   26.2500   34.9900 C   0  0  0  0  0  0  0  0  0  0  0  0
   24.7400   25.7600   33.9900 O   0  0  0  0  0  0  0  0  0  0  0  0
   26.5900   26.8900   34.9600 C   0  0  0  0  0  0  0  0  0  0  0  0
   27.0600   27.2400   36.1600 N   0  0  0  0  0  0  0  0  0  0  0  0
   28.3000   27.7100   36.2400 N   0  0  0  0  0  0  0  0  0  0  0  0
   29.0500   27.9600   35.1500 C   0  0  0  0  0  0  0  0  0  0  0  0
   30.3400   28.4900   35.2600 C   0  0  0  0  0  0  0  0  0  0  0  0
   31.1100   28.8200   34.1400 C   0  0  0  0  0  0  0  0  0  0  0  0
   30.5200   28.6700   32.8800 C   0  0  0  0  0  0  0  0  0  0  0  0
   29.2900   28.0200   32.7700 C   0  0  0  0  0  0  0  0  0  0  0  0
   28.5200   27.7100   33.8900 C   0  0  0  0  0  0  0  0  0  0  0  0
   27.2700   27.0800   33.7600 C   0  0  0  0  0  0  0  0  0  0  0  0
   26.7500   26.8800   32.4900 N   0  0  0  0  0  0  0  0  0  0  0  0
   23.3593   25.2062   36.2809 C   0  0  0  0  0  0  0  0  0  0  0  0
   22.3258   25.5808   37.0706 N   0  0  0  0  0  0  0  0  0  0  0  0
   21.2416   24.7925   37.2623 C   0  0  0  0  0  0  0  0  0  0  0  0
   21.1326   23.5315   36.6452 C   0  0  0  0  0  0  0  0  0  0  0  0
   19.7889   22.8415   36.8776 C   0  0  0  0  0  0  0  0  0  0  0  0
   19.6509   21.4231   36.5004 N   0  0  0  0  0  0  0  0  0  0  0  0
   18.9858   21.2319   35.1978 C   0  0  0  0  0  0  0  0  0  0  0  0
   20.8556   20.6057   36.7086 C   0  0  0  0  0  0  0  0  0  0  0  0
   21.7536   20.6665   35.5191 C   0  0  0  0  0  0  0  0  0  0  0  0
   22.2791   21.8115   35.0594 C   0  0  0  0  0  0  0  0  0  0  0  0
   22.2159   23.0950   35.8192 C   0  0  0  0  0  0  0  0  0  0  0  0
   23.3334   23.9434   35.6776 C   0  0  0  0  0  0  0  0  0  0  0  0
   22.9814   21.8374   33.8381 O   0  0  0  0  0  0  0  0  0  0  0  0
   23.0756   20.7574   32.9121 C   0  0  0  0  0  0  0  0  0  0  0  0
  1  2  1  0
  2  3  2  0
  2  4  1  0
  4  5  2  0
  5  6  1  0
  6  7  2  0
  7  8  1  0
  8  9  2  0
  9 10  1  0
 10 11  2  0
 11 12  1  0
 12 13  2  0
 13 14  1  0
  1 15  1  0
 15 16  2  0
 16 17  1  0
 17 18  2  0
 18 19  1  0
 19 20  1  0
 20 21  1  0
 20 22  1  0
 22 23  1  0
 23 24  2  0
 24 25  1  0
 25 26  2  0
 24 27  1  0
 27 28  1  0
 13  4  1  0
 26 15  1  0
 12  7  1  0
 25 18  1  0
M  END
>  <AAScore>  (1) 
754.3440183399129

>  <RootName>  (1) 
./4ZLY/04_DeltaGEst/trajectory_00/rank_01/lead_0273

$$$$
