confid_16
     RDKit          3D

 31 35  0  0  0  0  0  0  0  0999 V2000
   24.5700   26.8800   35.5900 N   0  0  0  0  0  0  0  0  0  0  0  0
   25.5000   26.4000   34.6900 C   0  0  0  0  0  0  0  0  0  0  0  0
   25.1700   25.5200   33.9100 O   0  0  0  0  0  0  0  0  0  0  0  0
   26.8400   27.0200   34.7400 C   0  0  0  0  0  0  0  0  0  0  0  0
   27.3800   27.2800   35.9400 N   0  0  0  0  0  0  0  0  0  0  0  0
   28.6200   27.7400   36.0300 N   0  0  0  0  0  0  0  0  0  0  0  0
   29.3800   28.0000   34.9600 C   0  0  0  0  0  0  0  0  0  0  0  0
   30.6700   28.5000   35.1300 C   0  0  0  0  0  0  0  0  0  0  0  0
   31.5400   28.6100   34.0300 C   0  0  0  0  0  0  0  0  0  0  0  0
   31.0900   28.2200   32.7700 C   0  0  0  0  0  0  0  0  0  0  0  0
   29.8000   27.7000   32.6000 C   0  0  0  0  0  0  0  0  0  0  0  0
   28.9600   27.5500   33.7100 C   0  0  0  0  0  0  0  0  0  0  0  0
   27.6600   27.0300   33.5900 C   0  0  0  0  0  0  0  0  0  0  0  0
   27.1600   26.7400   32.3400 N   0  0  0  0  0  0  0  0  0  0  0  0
   23.1489   26.8431   35.3802 C   0  0  0  0  0  0  0  0  0  0  0  0
   22.3587   27.0453   36.3955 N   0  0  0  0  0  0  0  0  0  0  0  0
   20.9252   26.9354   36.3561 C   0  0  0  0  0  0  0  0  0  0  0  0
   20.3020   26.2617   35.3773 C   0  0  0  0  0  0  0  0  0  0  0  0
   18.8625   25.8628   35.4700 C   0  0  2  0  0  0  0  0  0  0  0  0
   18.7833   24.3353   35.3803 C   0  0  0  0  0  0  0  0  0  0  0  0
   19.6715   23.7766   34.3400 N   0  0  0  0  0  0  0  0  0  0  0  0
   19.6703   22.3137   34.2031 C   0  0  0  0  0  0  0  0  0  0  0  0
   20.7296   21.8224   33.2070 C   0  0  0  0  0  0  0  0  0  0  0  0
   20.7992   22.6918   32.0199 N   0  0  0  0  0  0  0  0  0  0  0  0
   19.5095   22.7095   31.2920 C   0  0  0  0  0  0  0  0  0  0  0  0
   21.3245   24.0373   32.3844 C   0  0  1  0  0  0  0  0  0  0  0  0
   21.2191   25.0121   31.1883 C   0  0  0  0  0  0  0  0  0  0  0  0
   20.6718   24.5839   33.6595 C   0  0  0  0  0  0  0  0  0  0  0  0
   21.0617   25.7440   34.2358 C   0  0  0  0  0  0  0  0  0  0  0  0
   22.4666   26.7294   33.7116 S   0  0  0  0  0  0  0  0  0  0  0  0
   18.1641   26.4280   34.4170 F   0  0  0  0  0  0  0  0  0  0  0  0
  1  2  1  0
  2  3  2  0
  2  4  1  0
  4  5  2  0
  5  6  1  0
  6  7  2  0
  7  8  1  0
  8  9  2  0
  9 10  1  0
 10 11  2  0
 11 12  1  0
 12 13  2  0
 13 14  1  0
  1 15  1  0
 15 16  2  0
 16 17  1  0
 17 18  2  0
 18 19  1  0
 19 20  1  0
 20 21  1  0
 21 22  1  0
 22 23  1  0
 23 24  1  0
 24 25  1  0
 24 26  1  0
 26 27  1  6
 26 28  1  0
 28 29  2  0
 29 30  1  0
 19 31  1  6
 13  4  1  0
 30 15  1  0
 12  7  1  0
 29 18  1  0
 28 21  1  0
M  END
>  <AAScore>  (1) 
7278.480579085463

>  <RootName>  (1) 
./4ZLY/04_DeltaGEst/trajectory_05/rank_00/lead_0105

$$$$
