confid_12
     RDKit          3D

 28 30  0  0  0  0  0  0  0  0999 V2000
   24.5500   26.3900   36.2500 N   0  0  0  0  0  0  0  0  0  0  0  0
   25.6000   26.1300   35.4000 C   0  0  0  0  0  0  0  0  0  0  0  0
   25.4300   25.4300   34.4200 O   0  0  0  0  0  0  0  0  0  0  0  0
   26.9800   26.6300   35.7100 C   0  0  0  0  0  0  0  0  0  0  0  0
   27.3200   26.8200   36.9800 N   0  0  0  0  0  0  0  0  0  0  0  0
   28.4700   27.4000   37.3100 N   0  0  0  0  0  0  0  0  0  0  0  0
   29.4000   27.6300   36.3700 C   0  0  0  0  0  0  0  0  0  0  0  0
   30.6600   28.0500   36.8000 C   0  0  0  0  0  0  0  0  0  0  0  0
   31.5700   28.3600   35.7800 C   0  0  0  0  0  0  0  0  0  0  0  0
   31.3700   28.1000   34.4300 C   0  0  0  0  0  0  0  0  0  0  0  0
   30.1200   27.5900   34.0500 C   0  0  0  0  0  0  0  0  0  0  0  0
   29.1500   27.3400   35.0300 C   0  0  0  0  0  0  0  0  0  0  0  0
   27.8800   26.8900   34.6600 C   0  0  0  0  0  0  0  0  0  0  0  0
   27.4800   26.6100   33.3700 N   0  0  0  0  0  0  0  0  0  0  0  0
   23.2566   25.6903   36.1604 C   0  0  0  0  0  0  0  0  0  0  0  0
   22.1740   26.4238   36.9835 C   0  0  0  0  0  0  0  0  0  0  0  0
   22.1803   26.0209   38.4752 C   0  0  0  0  0  0  0  0  0  0  0  0
   23.5020   25.4884   38.8654 N   0  0  0  0  0  0  0  0  0  0  0  0
   23.5980   25.3361   40.3320 C   0  0  0  0  0  0  0  0  0  0  0  0
   25.0318   25.1425   40.7446 C   0  0  0  0  0  0  0  0  0  0  0  0
   25.7778   26.1517   40.8639 O   0  0  0  0  0  0  0  0  0  0  0  0
   25.5513   23.8137   40.9369 N   0  0  0  0  0  0  0  0  0  0  0  0
   26.9724   23.4871   41.1731 C   0  0  0  0  0  0  0  0  0  0  0  0
   27.1229   21.9553   41.2915 C   0  0  0  0  0  0  0  0  0  0  0  0
   27.8356   23.9740   39.9886 C   0  0  0  0  0  0  0  0  0  0  0  0
   27.4581   24.1269   42.4902 C   0  0  0  0  0  0  0  0  0  0  0  0
   23.7739   24.2040   38.1699 C   0  0  0  0  0  0  0  0  0  0  0  0
   23.3970   24.2464   36.6704 C   0  0  0  0  0  0  0  0  0  0  0  0
  1  2  1  0
  2  3  2  0
  2  4  1  0
  4  5  2  0
  5  6  1  0
  6  7  2  0
  7  8  1  0
  8  9  2  0
  9 10  1  0
 10 11  2  0
 11 12  1  0
 12 13  2  0
 13 14  1  0
  1 15  1  0
 15 16  1  0
 16 17  1  0
 17 18  1  0
 18 19  1  0
 19 20  1  0
 20 21  2  0
 20 22  1  0
 22 23  1  0
 23 24  1  0
 23 25  1  0
 23 26  1  0
 18 27  1  0
 27 28  1  0
 13  4  1  0
 28 15  1  0
 12  7  1  0
M  END
>  <AAScore>  (1) 
272.06097855754416

>  <RootName>  (1) 
./4ZLY/04_DeltaGEst/trajectory_01/rank_00/lead_0449

$$$$
