confid_16
     RDKit          3D

 28 32  0  0  0  0  0  0  0  0999 V2000
   24.4800   26.1000   36.1300 N   0  0  0  0  0  0  0  0  0  0  0  0
   25.2500   26.2500   34.9900 C   0  0  0  0  0  0  0  0  0  0  0  0
   24.7400   25.7600   33.9900 O   0  0  0  0  0  0  0  0  0  0  0  0
   26.5900   26.8900   34.9600 C   0  0  0  0  0  0  0  0  0  0  0  0
   27.0600   27.2400   36.1600 N   0  0  0  0  0  0  0  0  0  0  0  0
   28.3000   27.7100   36.2400 N   0  0  0  0  0  0  0  0  0  0  0  0
   29.0500   27.9600   35.1500 C   0  0  0  0  0  0  0  0  0  0  0  0
   30.3400   28.4900   35.2600 C   0  0  0  0  0  0  0  0  0  0  0  0
   31.1100   28.8200   34.1400 C   0  0  0  0  0  0  0  0  0  0  0  0
   30.5200   28.6700   32.8800 C   0  0  0  0  0  0  0  0  0  0  0  0
   29.2900   28.0200   32.7700 C   0  0  0  0  0  0  0  0  0  0  0  0
   28.5200   27.7100   33.8900 C   0  0  0  0  0  0  0  0  0  0  0  0
   27.2700   27.0800   33.7600 C   0  0  0  0  0  0  0  0  0  0  0  0
   26.7500   26.8800   32.4900 N   0  0  0  0  0  0  0  0  0  0  0  0
   23.4855   25.0775   36.3383 C   0  0  0  0  0  0  0  0  0  0  0  0
   23.3894   24.0060   35.4861 N   0  0  0  0  0  0  0  0  0  0  0  0
   22.4753   23.0082   35.6636 C   0  0  0  0  0  0  0  0  0  0  0  0
   21.6125   23.0782   36.7531 C   0  0  0  0  0  0  0  0  0  0  0  0
   20.5387   22.1127   37.1663 C   0  0  0  0  0  0  0  0  0  0  0  0
   19.9848   22.7302   38.3759 N   0  0  0  0  0  0  0  0  0  0  0  0
   20.6979   23.9353   38.6422 C   0  0  0  0  0  0  0  0  0  0  0  0
   20.4852   24.6893   39.6283 O   0  0  0  0  0  0  0  0  0  0  0  0
   21.6969   24.1376   37.6240 C   0  0  0  0  0  0  0  0  0  0  0  0
   22.6261   25.1586   37.4522 C   0  0  0  0  0  0  0  0  0  0  0  0
   18.9267   22.1576   39.2023 C   0  0  0  0  0  0  0  0  0  0  0  0
   17.6509   22.9960   39.0693 C   0  0  0  0  0  0  0  0  0  0  0  0
   16.5823   22.6810   40.1047 C   0  0  0  0  0  0  0  0  0  0  0  0
   17.3704   23.9779   40.1972 C   0  0  0  0  0  0  0  0  0  0  0  0
  1  2  1  0
  2  3  2  0
  2  4  1  0
  4  5  2  0
  5  6  1  0
  6  7  2  0
  7  8  1  0
  8  9  2  0
  9 10  1  0
 10 11  2  0
 11 12  1  0
 12 13  2  0
 13 14  1  0
  1 15  1  0
 15 16  2  0
 16 17  1  0
 17 18  2  0
 18 19  1  0
 19 20  1  0
 20 21  1  0
 21 22  2  0
 21 23  1  0
 23 24  2  0
 20 25  1  0
 25 26  1  0
 26 27  1  0
 27 28  1  0
 13  4  1  0
 24 15  1  0
 28 26  1  0
 12  7  1  0
 23 18  1  0
M  END
>  <AAScore>  (1) 
1796.346283964332

>  <RootName>  (1) 
./4ZLY/04_DeltaGEst/trajectory_00/rank_00/lead_0378

$$$$
