confid_9
     RDKit          3D

 31 34  0  0  0  0  0  0  0  0999 V2000
   24.5700   26.8800   35.5900 N   0  0  0  0  0  0  0  0  0  0  0  0
   25.5000   26.4000   34.6900 C   0  0  0  0  0  0  0  0  0  0  0  0
   25.1700   25.5200   33.9100 O   0  0  0  0  0  0  0  0  0  0  0  0
   26.8400   27.0200   34.7400 C   0  0  0  0  0  0  0  0  0  0  0  0
   27.3800   27.2800   35.9400 N   0  0  0  0  0  0  0  0  0  0  0  0
   28.6200   27.7400   36.0300 N   0  0  0  0  0  0  0  0  0  0  0  0
   29.3800   28.0000   34.9600 C   0  0  0  0  0  0  0  0  0  0  0  0
   30.6700   28.5000   35.1300 C   0  0  0  0  0  0  0  0  0  0  0  0
   31.5400   28.6100   34.0300 C   0  0  0  0  0  0  0  0  0  0  0  0
   31.0900   28.2200   32.7700 C   0  0  0  0  0  0  0  0  0  0  0  0
   29.8000   27.7000   32.6000 C   0  0  0  0  0  0  0  0  0  0  0  0
   28.9600   27.5500   33.7100 C   0  0  0  0  0  0  0  0  0  0  0  0
   27.6600   27.0300   33.5900 C   0  0  0  0  0  0  0  0  0  0  0  0
   27.1600   26.7400   32.3400 N   0  0  0  0  0  0  0  0  0  0  0  0
   23.2314   26.3604   35.6798 C   0  0  0  0  0  0  0  0  0  0  0  0
   22.5274   26.3165   34.5854 N   0  0  0  0  0  0  0  0  0  0  0  0
   21.1949   25.8555   34.3128 C   0  0  0  0  0  0  0  0  0  0  0  0
   20.1280   25.8371   35.1476 C   0  0  0  0  0  0  0  0  0  0  0  0
   18.7680   25.6404   34.5021 C   0  0  0  0  0  0  0  0  0  0  0  0
   17.7413   26.3066   35.3286 N   0  0  0  0  0  0  0  0  0  0  0  0
   16.4246   26.3801   34.6666 C   0  0  0  0  0  0  0  0  0  0  0  0
   16.3260   27.4624   33.5781 C   0  0  0  0  0  0  0  0  0  0  0  0
   18.1767   27.5599   35.6520 O   0  0  0  0  0  0  0  0  0  0  0  0
   19.0887   27.4448   36.7372 C   0  0  0  0  0  0  0  0  0  0  0  0
   20.0666   26.2085   36.6364 C   0  0  1  0  0  0  0  0  0  0  0  0
   19.4415   25.0266   37.4388 C   0  0  0  0  0  0  0  0  0  0  0  0
   21.4020   26.5298   37.3113 C   0  0  0  0  0  0  0  0  0  0  0  0
   21.4012   27.3789   38.1981 O   0  0  0  0  0  0  0  0  0  0  0  0
   22.7141   25.8129   36.9939 C   0  0  0  0  0  0  0  0  0  0  0  0
   22.5608   24.2789   36.8830 C   0  0  0  0  0  0  0  0  0  0  0  0
   23.7329   26.0602   38.1443 C   0  0  0  0  0  0  0  0  0  0  0  0
  1  2  1  0
  2  3  2  0
  2  4  1  0
  4  5  2  0
  5  6  1  0
  6  7  2  0
  7  8  1  0
  8  9  2  0
  9 10  1  0
 10 11  2  0
 11 12  1  0
 12 13  2  0
 13 14  1  0
  1 15  1  0
 15 16  2  0
 16 17  1  0
 17 18  2  0
 18 19  1  0
 19 20  1  0
 20 21  1  0
 21 22  1  0
 20 23  1  0
 23 24  1  0
 24 25  1  0
 25 26  1  1
 25 27  1  0
 27 28  2  0
 27 29  1  0
 29 30  1  0
 29 31  1  0
 13  4  1  0
 29 15  1  0
 12  7  1  0
 25 18  1  0
M  END
>  <AAScore>  (1) 
6424.408338290217

>  <RootName>  (1) 
./4ZLY/04_DeltaGEst/trajectory_05/rank_00/lead_0139

$$$$
