confid_15
     RDKit          3D

 30 33  0  0  0  0  0  0  0  0999 V2000
   24.5700   26.8800   35.5900 N   0  0  0  0  0  0  0  0  0  0  0  0
   25.5000   26.4000   34.6900 C   0  0  0  0  0  0  0  0  0  0  0  0
   25.1700   25.5200   33.9100 O   0  0  0  0  0  0  0  0  0  0  0  0
   26.8400   27.0200   34.7400 C   0  0  0  0  0  0  0  0  0  0  0  0
   27.3800   27.2800   35.9400 N   0  0  0  0  0  0  0  0  0  0  0  0
   28.6200   27.7400   36.0300 N   0  0  0  0  0  0  0  0  0  0  0  0
   29.3800   28.0000   34.9600 C   0  0  0  0  0  0  0  0  0  0  0  0
   30.6700   28.5000   35.1300 C   0  0  0  0  0  0  0  0  0  0  0  0
   31.5400   28.6100   34.0300 C   0  0  0  0  0  0  0  0  0  0  0  0
   31.0900   28.2200   32.7700 C   0  0  0  0  0  0  0  0  0  0  0  0
   29.8000   27.7000   32.6000 C   0  0  0  0  0  0  0  0  0  0  0  0
   28.9600   27.5500   33.7100 C   0  0  0  0  0  0  0  0  0  0  0  0
   27.6600   27.0300   33.5900 C   0  0  0  0  0  0  0  0  0  0  0  0
   27.1600   26.7400   32.3400 N   0  0  0  0  0  0  0  0  0  0  0  0
   23.3793   26.1943   36.0289 C   0  0  0  0  0  0  0  0  0  0  0  0
   22.5170   26.8650   36.7530 N   0  0  0  0  0  0  0  0  0  0  0  0
   21.3133   26.3081   37.3098 C   0  0  0  0  0  0  0  0  0  0  0  0
   21.0669   25.0134   37.1527 C   0  0  0  0  0  0  0  0  0  0  0  0
   19.9124   24.2057   37.6212 C   0  0  1  0  0  0  0  0  0  0  0  0
   20.2715   22.8025   37.0637 C   0  0  0  0  0  0  0  0  0  0  0  0
   21.5247   22.9643   36.3208 N   0  0  0  0  0  0  0  0  0  0  0  0
   21.9442   24.1785   36.4011 C   0  0  0  0  0  0  0  0  0  0  0  0
   23.1477   24.7192   35.6951 C   0  0  0  0  0  0  0  0  0  0  0  0
   19.7936   24.2171   39.1192 C   0  0  0  0  0  0  0  0  0  0  0  0
   20.7836   23.8953   39.8324 O   0  0  0  0  0  0  0  0  0  0  0  0
   18.5672   24.5801   39.6967 O   0  0  0  0  0  0  0  0  0  0  0  0
   18.2720   24.6325   41.1004 C   0  0  0  0  0  0  0  0  0  0  0  0
   16.8113   25.0885   41.2406 C   0  0  0  0  0  0  0  0  0  0  0  0
   18.4210   23.2379   41.7362 C   0  0  0  0  0  0  0  0  0  0  0  0
   19.1827   25.6533   41.8099 C   0  0  0  0  0  0  0  0  0  0  0  0
  1  2  1  0
  2  3  2  0
  2  4  1  0
  4  5  2  0
  5  6  1  0
  6  7  2  0
  7  8  1  0
  8  9  2  0
  9 10  1  0
 10 11  2  0
 11 12  1  0
 12 13  2  0
 13 14  1  0
  1 15  1  0
 15 16  2  0
 16 17  1  0
 17 18  2  0
 18 19  1  0
 19 20  1  0
 20 21  1  0
 21 22  2  0
 22 23  1  0
 19 24  1  1
 24 25  2  0
 24 26  1  0
 26 27  1  0
 27 28  1  0
 27 29  1  0
 27 30  1  0
 13  4  1  0
 23 15  1  0
 12  7  1  0
 22 18  1  0
M  END
>  <AAScore>  (1) 
2704.3984325612814

>  <RootName>  (1) 
./4ZLY/04_DeltaGEst/trajectory_05/rank_00/lead_0033

$$$$
