confid_1
     RDKit          3D

 28 31  0  0  0  0  0  0  0  0999 V2000
   24.2000   26.2400   35.6900 N   0  0  0  0  0  0  0  0  0  0  0  0
   24.8500   26.2800   34.4800 C   0  0  0  0  0  0  0  0  0  0  0  0
   24.3100   25.7400   33.5400 O   0  0  0  0  0  0  0  0  0  0  0  0
   26.1800   26.9700   34.4700 C   0  0  0  0  0  0  0  0  0  0  0  0
   26.6500   27.6000   35.5500 N   0  0  0  0  0  0  0  0  0  0  0  0
   27.7900   28.2700   35.6200 N   0  0  0  0  0  0  0  0  0  0  0  0
   28.5400   28.3000   34.5100 C   0  0  0  0  0  0  0  0  0  0  0  0
   29.7700   28.9400   34.5600 C   0  0  0  0  0  0  0  0  0  0  0  0
   30.7000   28.8900   33.5000 C   0  0  0  0  0  0  0  0  0  0  0  0
   30.3700   28.1400   32.3700 C   0  0  0  0  0  0  0  0  0  0  0  0
   29.1200   27.5200   32.2800 C   0  0  0  0  0  0  0  0  0  0  0  0
   28.2100   27.6100   33.3300 C   0  0  0  0  0  0  0  0  0  0  0  0
   26.9700   26.9700   33.3100 C   0  0  0  0  0  0  0  0  0  0  0  0
   26.5300   26.2400   32.2200 N   0  0  0  0  0  0  0  0  0  0  0  0
   23.1807   25.2695   36.0032 C   0  0  0  0  0  0  0  0  0  0  0  0
   23.2557   24.0249   35.4376 N   0  0  0  0  0  0  0  0  0  0  0  0
   22.3242   23.0821   35.7160 C   0  0  0  0  0  0  0  0  0  0  0  0
   22.2622   21.6964   35.1787 C   0  0  0  0  0  0  0  0  0  0  0  0
   20.9827   21.1231   35.8433 C   0  0  0  0  0  0  0  0  0  0  0  0
   20.4472   22.2008   36.6769 N   0  0  0  0  0  0  0  0  0  0  0  0
   21.2893   23.3308   36.5569 C   0  0  0  0  0  0  0  0  0  0  0  0
   21.1472   24.5719   37.1684 C   0  0  0  0  0  0  0  0  0  0  0  0
   22.1105   25.5696   36.9053 C   0  0  0  0  0  0  0  0  0  0  0  0
   21.9051   26.9391   37.5206 C   0  0  0  0  0  0  0  0  0  0  0  0
   21.0233   27.8346   36.6421 C   0  0  0  0  0  0  0  0  0  0  0  0
   21.7270   28.2701   35.4293 C   0  0  0  0  0  0  0  0  0  0  0  0
   22.2801   28.6162   34.4736 N   0  0  0  0  0  0  0  0  0  0  0  0
   19.2401   22.1153   37.4896 C   0  0  0  0  0  0  0  0  0  0  0  0
  1  2  1  0
  2  3  2  0
  2  4  1  0
  4  5  2  0
  5  6  1  0
  6  7  2  0
  7  8  1  0
  8  9  2  0
  9 10  1  0
 10 11  2  0
 11 12  1  0
 12 13  2  0
 13 14  1  0
  1 15  1  0
 15 16  2  0
 16 17  1  0
 17 18  1  0
 18 19  1  0
 19 20  1  0
 20 21  1  0
 21 22  1  0
 22 23  2  0
 23 24  1  0
 24 25  1  0
 25 26  1  0
 26 27  3  0
 20 28  1  0
 13  4  1  0
 23 15  1  0
 12  7  1  0
 21 17  2  0
M  END
>  <AAScore>  (1) 
345.7831722181502

>  <RootName>  (1) 
./4ZLY/04_DeltaGEst/trajectory_04/rank_00/lead_0474

$$$$
