confid_13
     RDKit          3D

 28 31  0  0  0  0  0  0  0  0999 V2000
   24.6900   26.1200   35.5300 N   0  0  0  0  0  0  0  0  0  0  0  0
   25.6600   25.6700   34.6600 C   0  0  0  0  0  0  0  0  0  0  0  0
   25.2400   25.0100   33.7200 O   0  0  0  0  0  0  0  0  0  0  0  0
   27.0300   26.2200   34.8800 C   0  0  0  0  0  0  0  0  0  0  0  0
   27.3500   26.7300   36.0700 N   0  0  0  0  0  0  0  0  0  0  0  0
   28.5700   27.1800   36.3300 N   0  0  0  0  0  0  0  0  0  0  0  0
   29.5300   27.1100   35.3900 C   0  0  0  0  0  0  0  0  0  0  0  0
   30.8300   27.5700   35.6500 C   0  0  0  0  0  0  0  0  0  0  0  0
   31.8500   27.5400   34.6900 C   0  0  0  0  0  0  0  0  0  0  0  0
   31.5100   27.1200   33.4000 C   0  0  0  0  0  0  0  0  0  0  0  0
   30.2200   26.6300   33.1100 C   0  0  0  0  0  0  0  0  0  0  0  0
   29.2400   26.6600   34.1000 C   0  0  0  0  0  0  0  0  0  0  0  0
   27.9300   26.2600   33.8100 C   0  0  0  0  0  0  0  0  0  0  0  0
   27.5200   25.7100   32.6100 N   0  0  0  0  0  0  0  0  0  0  0  0
   23.3304   26.4111   35.1493 C   0  0  0  0  0  0  0  0  0  0  0  0
   22.9849   26.5113   33.8263 N   0  0  0  0  0  0  0  0  0  0  0  0
   21.7162   26.8071   33.4240 C   0  0  0  0  0  0  0  0  0  0  0  0
   20.7399   27.0200   34.3925 C   0  0  0  0  0  0  0  0  0  0  0  0
   19.3097   27.3559   34.2009 C   0  0  0  0  0  0  0  0  0  0  0  0
   18.8100   27.4583   35.5738 N   0  0  0  0  0  0  0  0  0  0  0  0
   17.4581   27.8303   35.8917 C   0  0  0  0  0  0  0  0  0  0  0  0
   16.6581   28.1081   34.9562 O   0  0  0  0  0  0  0  0  0  0  0  0
   17.0086   27.9716   37.3246 C   0  0  0  0  0  0  0  0  0  0  0  0
   15.5052   27.7537   37.4887 C   0  0  0  0  0  0  0  0  0  0  0  0
   19.8598   27.2004   36.5637 C   0  0  0  0  0  0  0  0  0  0  0  0
   21.0538   26.9349   35.7244 C   0  0  0  0  0  0  0  0  0  0  0  0
   22.3502   26.6329   36.1396 C   0  0  0  0  0  0  0  0  0  0  0  0
   22.6479   26.5521   37.4612 F   0  0  0  0  0  0  0  0  0  0  0  0
  1  2  1  0
  2  3  2  0
  2  4  1  0
  4  5  2  0
  5  6  1  0
  6  7  2  0
  7  8  1  0
  8  9  2  0
  9 10  1  0
 10 11  2  0
 11 12  1  0
 12 13  2  0
 13 14  1  0
  1 15  1  0
 15 16  2  0
 16 17  1  0
 17 18  2  0
 18 19  1  0
 19 20  1  0
 20 21  1  0
 21 22  2  0
 21 23  1  0
 23 24  1  0
 20 25  1  0
 25 26  1  0
 26 27  2  0
 27 28  1  0
 13  4  1  0
 27 15  1  0
 12  7  1  0
 26 18  1  0
M  END
>  <AAScore>  (1) 
288.99943180423304

>  <RootName>  (1) 
./4ZLY/04_DeltaGEst/trajectory_02/rank_00/lead_0360

$$$$
