confid_11
     RDKit          3D

 29 32  0  0  0  0  0  0  0  0999 V2000
   24.2000   26.2400   35.6900 N   0  0  0  0  0  0  0  0  0  0  0  0
   24.8500   26.2800   34.4800 C   0  0  0  0  0  0  0  0  0  0  0  0
   24.3100   25.7400   33.5400 O   0  0  0  0  0  0  0  0  0  0  0  0
   26.1800   26.9700   34.4700 C   0  0  0  0  0  0  0  0  0  0  0  0
   26.6500   27.6000   35.5500 N   0  0  0  0  0  0  0  0  0  0  0  0
   27.7900   28.2700   35.6200 N   0  0  0  0  0  0  0  0  0  0  0  0
   28.5400   28.3000   34.5100 C   0  0  0  0  0  0  0  0  0  0  0  0
   29.7700   28.9400   34.5600 C   0  0  0  0  0  0  0  0  0  0  0  0
   30.7000   28.8900   33.5000 C   0  0  0  0  0  0  0  0  0  0  0  0
   30.3700   28.1400   32.3700 C   0  0  0  0  0  0  0  0  0  0  0  0
   29.1200   27.5200   32.2800 C   0  0  0  0  0  0  0  0  0  0  0  0
   28.2100   27.6100   33.3300 C   0  0  0  0  0  0  0  0  0  0  0  0
   26.9700   26.9700   33.3100 C   0  0  0  0  0  0  0  0  0  0  0  0
   26.5300   26.2400   32.2200 N   0  0  0  0  0  0  0  0  0  0  0  0
   30.1390   29.6866   35.7323 N   0  0  0  0  0  0  0  0  0  0  0  0
   29.4231   30.9247   36.0658 C   0  0  0  0  0  0  0  0  0  0  0  0
   30.3109   31.8521   36.9002 C   0  0  0  0  0  0  0  0  0  0  0  0
   31.7052   31.7110   36.4431 N   0  0  0  0  0  0  0  0  0  0  0  0
   32.5664   32.8266   36.9023 C   0  0  0  0  0  0  0  0  0  0  0  0
   33.0183   33.6980   35.7125 C   0  0  2  0  0  0  0  0  0  0  0  0
   31.8259   34.3622   34.9968 C   0  0  0  0  0  0  0  0  0  0  0  0
   32.2616   35.1915   33.7564 C   0  0  0  0  0  0  0  0  0  0  0  0
   30.9939   35.5690   32.9651 C   0  0  0  0  0  0  0  0  0  0  0  0
   32.9647   36.5053   34.1818 C   0  0  0  0  0  0  0  0  0  0  0  0
   33.1235   34.3773   32.8668 N   0  0  0  0  0  0  0  0  0  0  0  0
   34.2858   33.7804   33.5422 C   0  0  0  0  0  0  0  0  0  0  0  0
   33.8469   32.8888   34.7039 C   0  0  0  0  0  0  0  0  0  0  0  0
   32.2535   30.3920   36.8304 C   0  0  0  0  0  0  0  0  0  0  0  0
   31.2592   29.2403   36.5681 C   0  0  0  0  0  0  0  0  0  0  0  0
  1  2  1  0
  2  3  2  0
  2  4  1  0
  4  5  2  0
  5  6  1  0
  6  7  2  0
  7  8  1  0
  8  9  2  0
  9 10  1  0
 10 11  2  0
 11 12  1  0
 12 13  2  0
 13 14  1  0
  8 15  1  0
 15 16  1  0
 16 17  1  0
 17 18  1  0
 18 19  1  0
 20 19  1  1
 20 21  1  0
 21 22  1  0
 22 23  1  0
 22 24  1  0
 22 25  1  0
 25 26  1  0
 26 27  1  0
 18 28  1  0
 28 29  1  0
 13  4  1  0
 29 15  1  0
 12  7  1  0
 27 20  1  0
M  END
>  <AAScore>  (1) 
-7.905137149017819

>  <RootName>  (1) 
./4ZLY/04_DeltaGEst/trajectory_04/rank_01/lead_0472

$$$$
