confid_6
     RDKit          3D

 27 30  0  0  0  0  0  0  0  0999 V2000
   24.4800   26.1000   36.1300 N   0  0  0  0  0  0  0  0  0  0  0  0
   25.2500   26.2500   34.9900 C   0  0  0  0  0  0  0  0  0  0  0  0
   24.7400   25.7600   33.9900 O   0  0  0  0  0  0  0  0  0  0  0  0
   26.5900   26.8900   34.9600 C   0  0  0  0  0  0  0  0  0  0  0  0
   27.0600   27.2400   36.1600 N   0  0  0  0  0  0  0  0  0  0  0  0
   28.3000   27.7100   36.2400 N   0  0  0  0  0  0  0  0  0  0  0  0
   29.0500   27.9600   35.1500 C   0  0  0  0  0  0  0  0  0  0  0  0
   30.3400   28.4900   35.2600 C   0  0  0  0  0  0  0  0  0  0  0  0
   31.1100   28.8200   34.1400 C   0  0  0  0  0  0  0  0  0  0  0  0
   30.5200   28.6700   32.8800 C   0  0  0  0  0  0  0  0  0  0  0  0
   29.2900   28.0200   32.7700 C   0  0  0  0  0  0  0  0  0  0  0  0
   28.5200   27.7100   33.8900 C   0  0  0  0  0  0  0  0  0  0  0  0
   27.2700   27.0800   33.7600 C   0  0  0  0  0  0  0  0  0  0  0  0
   26.7500   26.8800   32.4900 N   0  0  0  0  0  0  0  0  0  0  0  0
   23.5211   25.0465   36.3513 C   0  0  0  0  0  0  0  0  0  0  0  0
   22.4042   25.2948   37.1616 C   0  0  0  0  0  0  0  0  0  0  0  0
   21.4620   24.2832   37.4316 C   0  0  0  0  0  0  0  0  0  0  0  0
   20.3093   24.5503   38.2660 N   0  0  0  0  0  0  0  0  0  0  0  0
   19.9261   25.8800   38.7206 C   0  0  0  0  0  0  0  0  0  0  0  0
   18.5736   25.7110   39.4143 C   0  0  1  0  0  0  0  0  0  0  0  0
   17.5210   26.1514   38.5901 O   0  0  0  0  0  0  0  0  0  0  0  0
   18.4485   24.2149   39.7136 C   0  0  0  0  0  0  0  0  0  0  0  0
   19.3979   23.5201   38.7465 C   0  0  0  0  0  0  0  0  0  0  0  0
   21.6674   23.0053   36.8767 C   0  0  0  0  0  0  0  0  0  0  0  0
   22.7825   22.7434   36.0682 C   0  0  0  0  0  0  0  0  0  0  0  0
   23.7173   23.7581   35.8276 C   0  0  0  0  0  0  0  0  0  0  0  0
   23.0156   21.3618   35.5306 C   0  0  0  0  0  0  0  0  0  0  0  0
  1  2  1  0
  2  3  2  0
  2  4  1  0
  4  5  2  0
  5  6  1  0
  6  7  2  0
  7  8  1  0
  8  9  2  0
  9 10  1  0
 10 11  2  0
 11 12  1  0
 12 13  2  0
 13 14  1  0
  1 15  1  0
 15 16  2  0
 16 17  1  0
 17 18  1  0
 18 19  1  0
 19 20  1  0
 20 21  1  6
 20 22  1  0
 22 23  1  0
 17 24  2  0
 24 25  1  0
 25 26  2  0
 25 27  1  0
 13  4  1  0
 26 15  1  0
 12  7  1  0
 23 18  1  0
M  END
>  <AAScore>  (1) 
2177.684194005532

>  <RootName>  (1) 
./4ZLY/04_DeltaGEst/trajectory_00/rank_00/lead_0044

$$$$
