confid_15
     RDKit          3D

 28 31  0  0  0  0  0  0  0  0999 V2000
   25.3300   26.2600   34.7600 N   0  0  0  0  0  0  0  0  0  0  0  0
   26.1200   25.9200   33.6900 C   0  0  0  0  0  0  0  0  0  0  0  0
   25.6300   25.1100   32.9400 O   0  0  0  0  0  0  0  0  0  0  0  0
   27.5200   26.3800   33.4600 C   0  0  0  0  0  0  0  0  0  0  0  0
   28.1600   26.6300   34.6100 N   0  0  0  0  0  0  0  0  0  0  0  0
   29.4800   26.8500   34.5700 N   0  0  0  0  0  0  0  0  0  0  0  0
   30.1900   26.7800   33.4400 C   0  0  0  0  0  0  0  0  0  0  0  0
   31.5600   27.0500   33.5000 C   0  0  0  0  0  0  0  0  0  0  0  0
   32.2700   27.2400   32.3100 C   0  0  0  0  0  0  0  0  0  0  0  0
   31.6100   27.2500   31.0800 C   0  0  0  0  0  0  0  0  0  0  0  0
   30.2700   26.8700   31.0600 C   0  0  0  0  0  0  0  0  0  0  0  0
   29.5100   26.6900   32.2300 C   0  0  0  0  0  0  0  0  0  0  0  0
   28.1400   26.4100   32.2000 C   0  0  0  0  0  0  0  0  0  0  0  0
   27.4300   26.1300   31.0500 N   0  0  0  0  0  0  0  0  0  0  0  0
   27.5663   24.8089   30.4214 C   0  0  0  0  0  0  0  0  0  0  0  0
   26.5595   24.6211   29.2808 C   0  0  0  0  0  0  0  0  0  0  0  0
   26.5460   25.7997   28.3989 N   0  0  0  0  0  0  0  0  0  0  0  0
   26.3707   25.6640   26.9730 C   0  0  0  0  0  0  0  0  0  0  0  0
   26.7530   26.5957   26.2121 O   0  0  0  0  0  0  0  0  0  0  0  0
   25.7823   24.4122   26.3691 C   0  0  0  0  0  0  0  0  0  0  0  0
   25.0252   24.6951   25.0667 C   0  0  0  0  0  0  0  0  0  0  0  0
   24.4185   23.4660   24.5611 N   0  0  0  0  0  0  0  0  0  0  0  0
   25.0105   22.5571   23.7630 C   0  0  0  0  0  0  0  0  0  0  0  0
   24.1537   21.4952   23.5543 C   0  0  0  0  0  0  0  0  0  0  0  0
   23.0012   21.7713   24.2658 C   0  0  0  0  0  0  0  0  0  0  0  0
   23.1996   22.9908   24.8809 C   0  0  0  0  0  0  0  0  0  0  0  0
   26.6266   27.1539   28.9700 C   0  0  0  0  0  0  0  0  0  0  0  0
   26.5166   27.1340   30.4965 C   0  0  0  0  0  0  0  0  0  0  0  0
  1  2  1  0
  2  3  2  0
  2  4  1  0
  4  5  2  0
  5  6  1  0
  6  7  2  0
  7  8  1  0
  8  9  2  0
  9 10  1  0
 10 11  2  0
 11 12  1  0
 12 13  2  0
 13 14  1  0
 14 15  1  0
 15 16  1  0
 16 17  1  0
 17 18  1  0
 18 19  2  0
 18 20  1  0
 20 21  1  0
 21 22  1  0
 22 23  1  0
 23 24  2  0
 24 25  1  0
 25 26  2  0
 17 27  1  0
 27 28  1  0
 13  4  1  0
 28 14  1  0
 12  7  1  0
 26 22  1  0
M  END
>  <AAScore>  (1) 
1.722750612037474

>  <RootName>  (1) 
./4ZLY/04_DeltaGEst/trajectory_03/rank_01/lead_0067

$$$$
