confid_8
     RDKit          3D

 26 29  0  0  0  0  0  0  0  0999 V2000
   25.3300   26.2600   34.7600 N   0  0  0  0  0  0  0  0  0  0  0  0
   26.1200   25.9200   33.6900 C   0  0  0  0  0  0  0  0  0  0  0  0
   25.6300   25.1100   32.9400 O   0  0  0  0  0  0  0  0  0  0  0  0
   27.5200   26.3800   33.4600 C   0  0  0  0  0  0  0  0  0  0  0  0
   28.1600   26.6300   34.6100 N   0  0  0  0  0  0  0  0  0  0  0  0
   29.4800   26.8500   34.5700 N   0  0  0  0  0  0  0  0  0  0  0  0
   30.1900   26.7800   33.4400 C   0  0  0  0  0  0  0  0  0  0  0  0
   31.5600   27.0500   33.5000 C   0  0  0  0  0  0  0  0  0  0  0  0
   32.2700   27.2400   32.3100 C   0  0  0  0  0  0  0  0  0  0  0  0
   31.6100   27.2500   31.0800 C   0  0  0  0  0  0  0  0  0  0  0  0
   30.2700   26.8700   31.0600 C   0  0  0  0  0  0  0  0  0  0  0  0
   29.5100   26.6900   32.2300 C   0  0  0  0  0  0  0  0  0  0  0  0
   28.1400   26.4100   32.2000 C   0  0  0  0  0  0  0  0  0  0  0  0
   27.4300   26.1300   31.0500 N   0  0  0  0  0  0  0  0  0  0  0  0
   26.5233   27.1372   30.4909 C   0  0  0  0  0  0  0  0  0  0  0  0
   26.6331   27.1424   28.9643 C   0  0  0  0  0  0  0  0  0  0  0  0
   26.5094   25.7842   28.4059 N   0  0  0  0  0  0  0  0  0  0  0  0
   26.0994   25.6001   27.0339 C   0  0  0  0  0  0  0  0  0  0  0  0
   25.3805   24.6079   26.7319 O   0  0  0  0  0  0  0  0  0  0  0  0
   26.5049   26.5352   25.9615 C   0  0  0  0  0  0  0  0  0  0  0  0
   25.9304   26.5239   24.6912 C   0  0  0  0  0  0  0  0  0  0  0  0
   26.6920   27.7075   23.7735 S   0  0  0  0  0  0  0  0  0  0  0  0
   27.7208   28.1801   25.0132 C   0  0  0  0  0  0  0  0  0  0  0  0
   27.4995   27.4499   26.1270 N   0  0  0  0  0  0  0  0  0  0  0  0
   26.5377   24.6160   29.2997 C   0  0  0  0  0  0  0  0  0  0  0  0
   27.5659   24.8096   30.4198 C   0  0  0  0  0  0  0  0  0  0  0  0
  1  2  1  0
  2  3  2  0
  2  4  1  0
  4  5  2  0
  5  6  1  0
  6  7  2  0
  7  8  1  0
  8  9  2  0
  9 10  1  0
 10 11  2  0
 11 12  1  0
 12 13  2  0
 13 14  1  0
 14 15  1  0
 15 16  1  0
 16 17  1  0
 17 18  1  0
 18 19  2  0
 18 20  1  0
 20 21  2  0
 21 22  1  0
 22 23  1  0
 23 24  2  0
 17 25  1  0
 25 26  1  0
 13  4  1  0
 26 14  1  0
 12  7  1  0
 24 20  1  0
M  END
>  <AAScore>  (1) 
31.327967481482197

>  <RootName>  (1) 
./4ZLY/04_DeltaGEst/trajectory_03/rank_01/lead_0483

$$$$
