confid_8
     RDKit          3D

 28 31  0  0  0  0  0  0  0  0999 V2000
   25.3300   26.2600   34.7600 N   0  0  0  0  0  0  0  0  0  0  0  0
   26.1200   25.9200   33.6900 C   0  0  0  0  0  0  0  0  0  0  0  0
   25.6300   25.1100   32.9400 O   0  0  0  0  0  0  0  0  0  0  0  0
   27.5200   26.3800   33.4600 C   0  0  0  0  0  0  0  0  0  0  0  0
   28.1600   26.6300   34.6100 N   0  0  0  0  0  0  0  0  0  0  0  0
   29.4800   26.8500   34.5700 N   0  0  0  0  0  0  0  0  0  0  0  0
   30.1900   26.7800   33.4400 C   0  0  0  0  0  0  0  0  0  0  0  0
   31.5600   27.0500   33.5000 C   0  0  0  0  0  0  0  0  0  0  0  0
   32.2700   27.2400   32.3100 C   0  0  0  0  0  0  0  0  0  0  0  0
   31.6100   27.2500   31.0800 C   0  0  0  0  0  0  0  0  0  0  0  0
   30.2700   26.8700   31.0600 C   0  0  0  0  0  0  0  0  0  0  0  0
   29.5100   26.6900   32.2300 C   0  0  0  0  0  0  0  0  0  0  0  0
   28.1400   26.4100   32.2000 C   0  0  0  0  0  0  0  0  0  0  0  0
   27.4300   26.1300   31.0500 N   0  0  0  0  0  0  0  0  0  0  0  0
   26.4919   27.1330   30.5309 C   0  0  0  0  0  0  0  0  0  0  0  0
   26.2569   26.9581   29.0315 C   0  0  0  0  0  0  0  0  0  0  0  0
   27.5393   26.8682   28.3299 N   0  0  0  0  0  0  0  0  0  0  0  0
   28.1215   28.0951   27.7724 C   0  0  0  0  0  0  0  0  0  0  0  0
   28.2452   25.6066   28.2129 C   0  0  0  0  0  0  0  0  0  0  0  0
   29.0063   25.3550   27.0549 C   0  0  0  0  0  0  0  0  0  0  0  0
   29.7329   24.1747   26.9093 C   0  0  0  0  0  0  0  0  0  0  0  0
   30.4537   23.9685   25.7786 F   0  0  0  0  0  0  0  0  0  0  0  0
   29.7194   23.2066   27.9121 C   0  0  0  0  0  0  0  0  0  0  0  0
   28.9635   23.4343   29.0738 C   0  0  0  0  0  0  0  0  0  0  0  0
   28.2351   24.6266   29.2495 C   0  0  0  0  0  0  0  0  0  0  0  0
   27.4206   24.7592   30.5215 C   0  0  0  0  0  0  0  0  0  0  0  0
   30.4648   22.0334   27.7172 O   0  0  0  0  0  0  0  0  0  0  0  0
   30.5481   20.9649   28.6548 C   0  0  0  0  0  0  0  0  0  0  0  0
  1  2  1  0
  2  3  2  0
  2  4  1  0
  4  5  2  0
  5  6  1  0
  6  7  2  0
  7  8  1  0
  8  9  2  0
  9 10  1  0
 10 11  2  0
 11 12  1  0
 12 13  2  0
 13 14  1  0
 14 15  1  0
 15 16  1  0
 16 17  1  0
 17 18  1  0
 17 19  1  0
 19 20  2  0
 20 21  1  0
 21 22  1  0
 21 23  2  0
 23 24  1  0
 24 25  2  0
 25 26  1  0
 23 27  1  0
 27 28  1  0
 13  4  1  0
 26 14  1  0
 12  7  1  0
 25 19  1  0
M  END
>  <AAScore>  (1) 
-0.907143467029796

>  <RootName>  (1) 
./4ZLY/04_DeltaGEst/trajectory_03/rank_01/lead_0392

$$$$
