confid_14
     RDKit          3D

 31 34  0  0  0  0  0  0  0  0999 V2000
   24.5500   26.3900   36.2500 N   0  0  0  0  0  0  0  0  0  0  0  0
   25.6000   26.1300   35.4000 C   0  0  0  0  0  0  0  0  0  0  0  0
   25.4300   25.4300   34.4200 O   0  0  0  0  0  0  0  0  0  0  0  0
   26.9800   26.6300   35.7100 C   0  0  0  0  0  0  0  0  0  0  0  0
   27.3200   26.8200   36.9800 N   0  0  0  0  0  0  0  0  0  0  0  0
   28.4700   27.4000   37.3100 N   0  0  0  0  0  0  0  0  0  0  0  0
   29.4000   27.6300   36.3700 C   0  0  0  0  0  0  0  0  0  0  0  0
   30.6600   28.0500   36.8000 C   0  0  0  0  0  0  0  0  0  0  0  0
   31.5700   28.3600   35.7800 C   0  0  0  0  0  0  0  0  0  0  0  0
   31.3700   28.1000   34.4300 C   0  0  0  0  0  0  0  0  0  0  0  0
   30.1200   27.5900   34.0500 C   0  0  0  0  0  0  0  0  0  0  0  0
   29.1500   27.3400   35.0300 C   0  0  0  0  0  0  0  0  0  0  0  0
   27.8800   26.8900   34.6600 C   0  0  0  0  0  0  0  0  0  0  0  0
   27.4800   26.6100   33.3700 N   0  0  0  0  0  0  0  0  0  0  0  0
   31.0003   28.2928   38.2252 C   0  0  0  0  0  0  0  0  0  0  0  0
   30.7931   27.2908   39.1890 C   0  0  0  0  0  0  0  0  0  0  0  0
   31.1158   27.5232   40.5344 C   0  0  0  0  0  0  0  0  0  0  0  0
   30.8570   26.4813   41.5877 C   0  0  0  0  0  0  0  0  0  0  0  0
   31.8966   26.5127   42.6302 N   0  0  0  0  0  0  0  0  0  0  0  0
   32.1298   25.2882   43.3449 C   0  0  0  0  0  0  0  0  0  0  0  0
   31.3063   24.9155   44.2245 O   0  0  0  0  0  0  0  0  0  0  0  0
   33.3302   24.4451   43.0460 C   0  0  0  0  0  0  0  0  0  0  0  0
   32.9283   23.1004   42.8886 O   0  0  0  0  0  0  0  0  0  0  0  0
   34.0622   22.2989   42.6378 C   0  0  0  0  0  0  0  0  0  0  0  0
   32.5750   27.7744   43.0401 C   0  0  0  0  0  0  0  0  0  0  0  0
   34.0558   27.7240   42.6086 C   0  0  0  0  0  0  0  0  0  0  0  0
   32.5017   27.9519   44.5724 C   0  0  0  0  0  0  0  0  0  0  0  0
   31.8947   29.0081   42.3812 C   0  0  0  0  0  0  0  0  0  0  0  0
   31.6332   28.7649   40.9232 C   0  0  0  0  0  0  0  0  0  0  0  0
   31.8445   29.7666   39.9662 C   0  0  0  0  0  0  0  0  0  0  0  0
   31.5398   29.5278   38.6237 C   0  0  0  0  0  0  0  0  0  0  0  0
  1  2  1  0
  2  3  2  0
  2  4  1  0
  4  5  2  0
  5  6  1  0
  6  7  2  0
  7  8  1  0
  8  9  2  0
  9 10  1  0
 10 11  2  0
 11 12  1  0
 12 13  2  0
 13 14  1  0
  8 15  1  0
 15 16  2  0
 16 17  1  0
 17 18  1  0
 18 19  1  0
 19 20  1  0
 20 21  2  0
 20 22  1  0
 22 23  1  0
 23 24  1  0
 19 25  1  0
 25 26  1  0
 25 27  1  0
 25 28  1  0
 28 29  1  0
 29 30  1  0
 30 31  2  0
 13  4  1  0
 31 15  1  0
 12  7  1  0
 29 17  2  0
M  END
>  <AAScore>  (1) 
324.3165663254196

>  <RootName>  (1) 
./4ZLY/04_DeltaGEst/trajectory_01/rank_01/lead_0231

$$$$
