confid_0
     RDKit          3D

 31 35  0  0  0  0  0  0  0  0999 V2000
   24.2000   26.2400   35.6900 N   0  0  0  0  0  0  0  0  0  0  0  0
   24.8500   26.2800   34.4800 C   0  0  0  0  0  0  0  0  0  0  0  0
   24.3100   25.7400   33.5400 O   0  0  0  0  0  0  0  0  0  0  0  0
   26.1800   26.9700   34.4700 C   0  0  0  0  0  0  0  0  0  0  0  0
   26.6500   27.6000   35.5500 N   0  0  0  0  0  0  0  0  0  0  0  0
   27.7900   28.2700   35.6200 N   0  0  0  0  0  0  0  0  0  0  0  0
   28.5400   28.3000   34.5100 C   0  0  0  0  0  0  0  0  0  0  0  0
   29.7700   28.9400   34.5600 C   0  0  0  0  0  0  0  0  0  0  0  0
   30.7000   28.8900   33.5000 C   0  0  0  0  0  0  0  0  0  0  0  0
   30.3700   28.1400   32.3700 C   0  0  0  0  0  0  0  0  0  0  0  0
   29.1200   27.5200   32.2800 C   0  0  0  0  0  0  0  0  0  0  0  0
   28.2100   27.6100   33.3300 C   0  0  0  0  0  0  0  0  0  0  0  0
   26.9700   26.9700   33.3100 C   0  0  0  0  0  0  0  0  0  0  0  0
   26.5300   26.2400   32.2200 N   0  0  0  0  0  0  0  0  0  0  0  0
   23.0683   25.3956   35.9475 C   0  0  0  0  0  0  0  0  0  0  0  0
   22.0726   25.8815   36.6388 N   0  0  0  0  0  0  0  0  0  0  0  0
   20.9129   25.1483   37.0551 C   0  0  0  0  0  0  0  0  0  0  0  0
   20.1562   24.4882   36.1848 C   0  0  0  0  0  0  0  0  0  0  0  0
   19.0412   23.4848   36.1934 C   0  0  0  0  0  0  0  0  0  0  0  0
   19.0204   23.3070   34.8124 O   0  0  0  0  0  0  0  0  0  0  0  0
   20.0021   24.2888   34.7005 C   0  0  2  0  0  0  0  0  0  0  0  0
   21.2469   23.7882   33.9422 C   0  0  0  0  0  0  0  0  0  0  0  0
   22.3189   23.2139   34.8340 C   0  0  0  0  0  0  0  0  0  0  0  0
   23.1602   23.9497   35.6419 C   0  0  0  0  0  0  0  0  0  0  0  0
   24.0553   23.1329   36.2240 N   0  0  0  0  0  0  0  0  0  0  0  0
   23.7397   21.8982   35.7696 C   0  0  0  0  0  0  0  0  0  0  0  0
   22.6598   21.9109   34.9380 N   0  0  0  0  0  0  0  0  0  0  0  0
   22.0386   20.7938   34.2190 C   0  0  0  0  0  0  0  0  0  0  0  0
   24.5324   20.6856   36.2181 C   0  0  0  0  0  0  0  0  0  0  0  0
   23.7527   19.8200   37.2161 C   0  0  0  0  0  0  0  0  0  0  0  0
   25.0955   19.8689   35.0474 C   0  0  0  0  0  0  0  0  0  0  0  0
  1  2  1  0
  2  3  2  0
  2  4  1  0
  4  5  2  0
  5  6  1  0
  6  7  2  0
  7  8  1  0
  8  9  2  0
  9 10  1  0
 10 11  2  0
 11 12  1  0
 12 13  2  0
 13 14  1  0
  1 15  1  0
 15 16  2  0
 16 17  1  0
 17 18  2  0
 18 19  1  0
 19 20  1  0
 20 21  1  0
 21 22  1  1
 22 23  1  0
 23 24  2  0
 24 25  1  0
 25 26  2  0
 26 27  1  0
 27 28  1  0
 26 29  1  0
 29 30  1  0
 29 31  1  0
 13  4  1  0
 24 15  1  0
 12  7  1  0
 21 18  1  0
 27 23  1  0
M  END
>  <AAScore>  (1) 
13122.61497392522

>  <RootName>  (1) 
./4ZLY/04_DeltaGEst/trajectory_04/rank_00/lead_0399

$$$$
