confid_4
     RDKit          3D

 28 31  0  0  0  0  0  0  0  0999 V2000
   24.6900   26.1200   35.5300 N   0  0  0  0  0  0  0  0  0  0  0  0
   25.6600   25.6700   34.6600 C   0  0  0  0  0  0  0  0  0  0  0  0
   25.2400   25.0100   33.7200 O   0  0  0  0  0  0  0  0  0  0  0  0
   27.0300   26.2200   34.8800 C   0  0  0  0  0  0  0  0  0  0  0  0
   27.3500   26.7300   36.0700 N   0  0  0  0  0  0  0  0  0  0  0  0
   28.5700   27.1800   36.3300 N   0  0  0  0  0  0  0  0  0  0  0  0
   29.5300   27.1100   35.3900 C   0  0  0  0  0  0  0  0  0  0  0  0
   30.8300   27.5700   35.6500 C   0  0  0  0  0  0  0  0  0  0  0  0
   31.8500   27.5400   34.6900 C   0  0  0  0  0  0  0  0  0  0  0  0
   31.5100   27.1200   33.4000 C   0  0  0  0  0  0  0  0  0  0  0  0
   30.2200   26.6300   33.1100 C   0  0  0  0  0  0  0  0  0  0  0  0
   29.2400   26.6600   34.1000 C   0  0  0  0  0  0  0  0  0  0  0  0
   27.9300   26.2600   33.8100 C   0  0  0  0  0  0  0  0  0  0  0  0
   27.5200   25.7100   32.6100 N   0  0  0  0  0  0  0  0  0  0  0  0
   31.1473   28.0588   36.9661 N   0  0  0  0  0  0  0  0  0  0  0  0
   31.1763   27.1380   38.1022 C   0  0  0  0  0  0  0  0  0  0  0  0
   30.4492   27.7701   39.2860 C   0  0  0  0  0  0  0  0  0  0  0  0
   30.8883   29.1984   39.5260 C   0  0  0  0  0  0  0  0  0  0  0  0
   30.6439   29.8166   40.7702 C   0  0  0  0  0  0  0  0  0  0  0  0
   30.0171   29.0777   41.8304 N   0  0  0  0  0  0  0  0  0  0  0  0
   30.8374   28.5302   42.9088 C   0  0  0  0  0  0  0  0  0  0  0  0
   28.5701   29.1717   42.0089 C   0  0  0  0  0  0  0  0  0  0  0  0
   31.0041   31.1613   40.9612 C   0  0  0  0  0  0  0  0  0  0  0  0
   30.7208   31.9817   42.4905 Cl  0  0  0  0  0  0  0  0  0  0  0  0
   31.5888   31.8682   39.9109 C   0  0  0  0  0  0  0  0  0  0  0  0
   31.7988   31.2645   38.7142 N   0  0  0  0  0  0  0  0  0  0  0  0
   31.4573   29.9685   38.4852 C   0  0  0  0  0  0  0  0  0  0  0  0
   31.7552   29.3821   37.1299 C   0  0  0  0  0  0  0  0  0  0  0  0
  1  2  1  0
  2  3  2  0
  2  4  1  0
  4  5  2  0
  5  6  1  0
  6  7  2  0
  7  8  1  0
  8  9  2  0
  9 10  1  0
 10 11  2  0
 11 12  1  0
 12 13  2  0
 13 14  1  0
  8 15  1  0
 15 16  1  0
 16 17  1  0
 17 18  1  0
 18 19  2  0
 19 20  1  0
 20 21  1  0
 20 22  1  0
 19 23  1  0
 23 24  1  0
 23 25  2  0
 25 26  1  0
 26 27  2  0
 27 28  1  0
 13  4  1  0
 28 15  1  0
 12  7  1  0
 27 18  1  0
M  END
>  <AAScore>  (1) 
-5.090999006779138

>  <RootName>  (1) 
./4ZLY/04_DeltaGEst/trajectory_02/rank_01/lead_0498

$$$$
