confid_10
     RDKit          3D

 28 31  0  0  0  0  0  0  0  0999 V2000
   25.3300   26.2600   34.7600 N   0  0  0  0  0  0  0  0  0  0  0  0
   26.1200   25.9200   33.6900 C   0  0  0  0  0  0  0  0  0  0  0  0
   25.6300   25.1100   32.9400 O   0  0  0  0  0  0  0  0  0  0  0  0
   27.5200   26.3800   33.4600 C   0  0  0  0  0  0  0  0  0  0  0  0
   28.1600   26.6300   34.6100 N   0  0  0  0  0  0  0  0  0  0  0  0
   29.4800   26.8500   34.5700 N   0  0  0  0  0  0  0  0  0  0  0  0
   30.1900   26.7800   33.4400 C   0  0  0  0  0  0  0  0  0  0  0  0
   31.5600   27.0500   33.5000 C   0  0  0  0  0  0  0  0  0  0  0  0
   32.2700   27.2400   32.3100 C   0  0  0  0  0  0  0  0  0  0  0  0
   31.6100   27.2500   31.0800 C   0  0  0  0  0  0  0  0  0  0  0  0
   30.2700   26.8700   31.0600 C   0  0  0  0  0  0  0  0  0  0  0  0
   29.5100   26.6900   32.2300 C   0  0  0  0  0  0  0  0  0  0  0  0
   28.1400   26.4100   32.2000 C   0  0  0  0  0  0  0  0  0  0  0  0
   27.4300   26.1300   31.0500 N   0  0  0  0  0  0  0  0  0  0  0  0
   24.0176   25.6669   35.0356 C   0  0  0  0  0  0  0  0  0  0  0  0
   24.1554   24.2257   35.3252 N   0  0  0  0  0  0  0  0  0  0  0  0
   24.8244   24.0202   36.6269 C   0  0  0  0  0  0  0  0  0  0  0  0
   25.0480   22.5279   36.8753 C   0  0  0  0  0  0  0  0  0  0  0  0
   23.7833   21.8009   36.7282 N   0  0  0  0  0  0  0  0  0  0  0  0
   22.9644   22.0734   35.5419 C   0  0  0  0  0  0  0  0  0  0  0  0
   22.8259   23.5839   35.3356 C   0  0  0  0  0  0  0  0  0  0  0  0
   23.4812   20.7057   37.6138 C   0  0  0  0  0  0  0  0  0  0  0  0
   23.0336   19.4628   37.1243 C   0  0  0  0  0  0  0  0  0  0  0  0
   22.9102   19.2308   35.7936 F   0  0  0  0  0  0  0  0  0  0  0  0
   22.7518   18.4333   38.0255 C   0  0  0  0  0  0  0  0  0  0  0  0
   22.9204   18.6394   39.3947 C   0  0  0  0  0  0  0  0  0  0  0  0
   23.3770   19.8778   39.8464 C   0  0  0  0  0  0  0  0  0  0  0  0
   23.6455   20.8700   38.9569 N   0  0  0  0  0  0  0  0  0  0  0  0
  1  2  1  0
  2  3  2  0
  2  4  1  0
  4  5  2  0
  5  6  1  0
  6  7  2  0
  7  8  1  0
  8  9  2  0
  9 10  1  0
 10 11  2  0
 11 12  1  0
 12 13  2  0
 13 14  1  0
  1 15  1  0
 15 16  1  0
 16 17  1  0
 17 18  1  0
 18 19  1  0
 19 20  1  0
 20 21  1  0
 19 22  1  0
 22 23  2  0
 23 24  1  0
 23 25  1  0
 25 26  2  0
 26 27  1  0
 27 28  2  0
 13  4  1  0
 21 16  1  0
 28 22  1  0
 12  7  1  0
M  END
>  <AAScore>  (1) 
1846.823918670401

>  <RootName>  (1) 
./4ZLY/04_DeltaGEst/trajectory_03/rank_00/lead_0403

$$$$
