confid_7
     RDKit          3D

 29 32  0  0  0  0  0  0  0  0999 V2000
   24.5500   26.3900   36.2500 N   0  0  0  0  0  0  0  0  0  0  0  0
   25.6000   26.1300   35.4000 C   0  0  0  0  0  0  0  0  0  0  0  0
   25.4300   25.4300   34.4200 O   0  0  0  0  0  0  0  0  0  0  0  0
   26.9800   26.6300   35.7100 C   0  0  0  0  0  0  0  0  0  0  0  0
   27.3200   26.8200   36.9800 N   0  0  0  0  0  0  0  0  0  0  0  0
   28.4700   27.4000   37.3100 N   0  0  0  0  0  0  0  0  0  0  0  0
   29.4000   27.6300   36.3700 C   0  0  0  0  0  0  0  0  0  0  0  0
   30.6600   28.0500   36.8000 C   0  0  0  0  0  0  0  0  0  0  0  0
   31.5700   28.3600   35.7800 C   0  0  0  0  0  0  0  0  0  0  0  0
   31.3700   28.1000   34.4300 C   0  0  0  0  0  0  0  0  0  0  0  0
   30.1200   27.5900   34.0500 C   0  0  0  0  0  0  0  0  0  0  0  0
   29.1500   27.3400   35.0300 C   0  0  0  0  0  0  0  0  0  0  0  0
   27.8800   26.8900   34.6600 C   0  0  0  0  0  0  0  0  0  0  0  0
   27.4800   26.6100   33.3700 N   0  0  0  0  0  0  0  0  0  0  0  0
   23.1802   25.8762   36.0805 C   0  0  0  0  0  0  0  0  0  0  0  0
   22.5062   26.5001   34.8410 C   0  0  0  0  0  0  0  0  0  0  0  0
   21.1659   25.8154   34.5417 C   0  0  0  0  0  0  0  0  0  0  0  0
   21.3109   24.3518   34.4394 N   0  0  0  0  0  0  0  0  0  0  0  0
   20.2512   23.5577   33.8593 C   0  0  0  0  0  0  0  0  0  0  0  0
   20.5002   22.3946   33.4344 O   0  0  0  0  0  0  0  0  0  0  0  0
   18.8589   24.1149   33.6873 C   0  0  0  0  0  0  0  0  0  0  0  0
   17.8660   23.0276   33.5463 N   0  0  0  0  0  0  0  0  0  0  0  0
   17.4742   22.4125   34.8291 C   0  0  0  0  0  0  0  0  0  0  0  0
   18.1843   22.8655   35.9378 F   0  0  0  0  0  0  0  0  0  0  0  0
   17.4944   21.0308   34.7385 F   0  0  0  0  0  0  0  0  0  0  0  0
   16.0638   22.9679   34.7687 C   0  0  0  0  0  0  0  0  0  0  0  0
   16.5002   23.5670   33.4417 C   0  0  0  0  0  0  0  0  0  0  0  0
   22.5899   23.7179   34.7983 C   0  0  0  0  0  0  0  0  0  0  0  0
   23.1446   24.3230   36.0944 C   0  0  0  0  0  0  0  0  0  0  0  0
  1  2  1  0
  2  3  2  0
  2  4  1  0
  4  5  2  0
  5  6  1  0
  6  7  2  0
  7  8  1  0
  8  9  2  0
  9 10  1  0
 10 11  2  0
 11 12  1  0
 12 13  2  0
 13 14  1  0
  1 15  1  0
 15 16  1  0
 16 17  1  0
 17 18  1  0
 18 19  1  0
 19 20  2  0
 19 21  1  0
 21 22  1  0
 22 23  1  0
 23 24  1  0
 23 25  1  0
 23 26  1  0
 26 27  1  0
 18 28  1  0
 28 29  1  0
 13  4  1  0
 29 15  1  0
 12  7  1  0
 27 22  1  0
M  END
>  <AAScore>  (1) 
511.6697382172923

>  <RootName>  (1) 
./4ZLY/04_DeltaGEst/trajectory_01/rank_00/lead_0324

$$$$
