confid_2
     RDKit          3D

 27 30  0  0  0  0  0  0  0  0999 V2000
   24.5500   26.3900   36.2500 N   0  0  0  0  0  0  0  0  0  0  0  0
   25.6000   26.1300   35.4000 C   0  0  0  0  0  0  0  0  0  0  0  0
   25.4300   25.4300   34.4200 O   0  0  0  0  0  0  0  0  0  0  0  0
   26.9800   26.6300   35.7100 C   0  0  0  0  0  0  0  0  0  0  0  0
   27.3200   26.8200   36.9800 N   0  0  0  0  0  0  0  0  0  0  0  0
   28.4700   27.4000   37.3100 N   0  0  0  0  0  0  0  0  0  0  0  0
   29.4000   27.6300   36.3700 C   0  0  0  0  0  0  0  0  0  0  0  0
   30.6600   28.0500   36.8000 C   0  0  0  0  0  0  0  0  0  0  0  0
   31.5700   28.3600   35.7800 C   0  0  0  0  0  0  0  0  0  0  0  0
   31.3700   28.1000   34.4300 C   0  0  0  0  0  0  0  0  0  0  0  0
   30.1200   27.5900   34.0500 C   0  0  0  0  0  0  0  0  0  0  0  0
   29.1500   27.3400   35.0300 C   0  0  0  0  0  0  0  0  0  0  0  0
   27.8800   26.8900   34.6600 C   0  0  0  0  0  0  0  0  0  0  0  0
   27.4800   26.6100   33.3700 N   0  0  0  0  0  0  0  0  0  0  0  0
   30.9677   28.3145   38.1779 N   0  0  0  0  0  0  0  0  0  0  0  0
   31.3486   29.6253   38.7011 C   0  0  0  0  0  0  0  0  0  0  0  0
   31.3817   29.4708   40.2411 C   0  0  0  0  0  0  0  0  0  0  0  0
   31.0624   28.0282   40.4575 C   0  0  0  0  0  0  0  0  0  0  0  0
   30.9972   27.3381   41.6729 C   0  0  0  0  0  0  0  0  0  0  0  0
   31.2336   28.0705   42.8504 O   0  0  0  0  0  0  0  0  0  0  0  0
   31.1916   27.5624   44.1794 C   0  0  0  0  0  0  0  0  0  0  0  0
   30.7029   25.9439   41.6360 C   0  0  0  0  0  0  0  0  0  0  0  0
   30.6286   25.2110   42.8312 O   0  0  0  0  0  0  0  0  0  0  0  0
   30.3906   23.8092   42.9146 C   0  0  0  0  0  0  0  0  0  0  0  0
   30.4948   25.3134   40.3807 C   0  0  0  0  0  0  0  0  0  0  0  0
   30.5664   26.0445   39.1883 C   0  0  0  0  0  0  0  0  0  0  0  0
   30.8367   27.4091   39.2614 C   0  0  0  0  0  0  0  0  0  0  0  0
  1  2  1  0
  2  3  2  0
  2  4  1  0
  4  5  2  0
  5  6  1  0
  6  7  2  0
  7  8  1  0
  8  9  2  0
  9 10  1  0
 10 11  2  0
 11 12  1  0
 12 13  2  0
 13 14  1  0
  8 15  1  0
 15 16  1  0
 16 17  1  0
 17 18  1  0
 18 19  2  0
 19 20  1  0
 20 21  1  0
 19 22  1  0
 22 23  1  0
 23 24  1  0
 22 25  2  0
 25 26  1  0
 26 27  2  0
 13  4  1  0
 27 15  1  0
 12  7  1  0
 27 18  1  0
M  END
>  <AAScore>  (1) 
367.5346976602272

>  <RootName>  (1) 
./4ZLY/04_DeltaGEst/trajectory_01/rank_01/lead_0280

$$$$
