confid_6
     RDKit          3D

 28 31  0  0  0  0  0  0  0  0999 V2000
   24.6900   26.1200   35.5300 N   0  0  0  0  0  0  0  0  0  0  0  0
   25.6600   25.6700   34.6600 C   0  0  0  0  0  0  0  0  0  0  0  0
   25.2400   25.0100   33.7200 O   0  0  0  0  0  0  0  0  0  0  0  0
   27.0300   26.2200   34.8800 C   0  0  0  0  0  0  0  0  0  0  0  0
   27.3500   26.7300   36.0700 N   0  0  0  0  0  0  0  0  0  0  0  0
   28.5700   27.1800   36.3300 N   0  0  0  0  0  0  0  0  0  0  0  0
   29.5300   27.1100   35.3900 C   0  0  0  0  0  0  0  0  0  0  0  0
   30.8300   27.5700   35.6500 C   0  0  0  0  0  0  0  0  0  0  0  0
   31.8500   27.5400   34.6900 C   0  0  0  0  0  0  0  0  0  0  0  0
   31.5100   27.1200   33.4000 C   0  0  0  0  0  0  0  0  0  0  0  0
   30.2200   26.6300   33.1100 C   0  0  0  0  0  0  0  0  0  0  0  0
   29.2400   26.6600   34.1000 C   0  0  0  0  0  0  0  0  0  0  0  0
   27.9300   26.2600   33.8100 C   0  0  0  0  0  0  0  0  0  0  0  0
   27.5200   25.7100   32.6100 N   0  0  0  0  0  0  0  0  0  0  0  0
   31.1554   28.0553   36.9637 N   0  0  0  0  0  0  0  0  0  0  0  0
   31.1085   27.2254   38.1579 C   0  0  0  0  0  0  0  0  0  0  0  0
   31.8454   28.0188   39.2309 C   0  0  0  0  0  0  0  0  0  0  0  0
   31.8118   29.4791   38.7438 C   0  0  2  0  0  0  0  0  0  0  0  0
   32.9975   30.3128   39.2182 C   0  0  0  0  0  0  0  0  0  0  0  0
   32.5632   31.7128   39.1482 N   0  0  0  0  0  0  0  0  0  0  0  0
   33.2993   32.5562   40.1123 C   0  0  0  0  0  0  0  0  0  0  0  0
   33.1900   34.0380   39.7437 C   0  0  0  0  0  0  0  0  0  0  0  0
   31.8905   34.4849   39.8982 F   0  0  0  0  0  0  0  0  0  0  0  0
   33.5844   34.2280   38.4313 F   0  0  0  0  0  0  0  0  0  0  0  0
   34.0147   34.7784   40.5710 F   0  0  0  0  0  0  0  0  0  0  0  0
   31.1041   31.7067   39.3711 C   0  0  0  0  0  0  0  0  0  0  0  0
   30.6189   30.2604   39.2984 C   0  0  0  0  0  0  0  0  0  0  0  0
   31.7383   29.3638   37.2088 C   0  0  0  0  0  0  0  0  0  0  0  0
  1  2  1  0
  2  3  2  0
  2  4  1  0
  4  5  2  0
  5  6  1  0
  6  7  2  0
  7  8  1  0
  8  9  2  0
  9 10  1  0
 10 11  2  0
 11 12  1  0
 12 13  2  0
 13 14  1  0
  8 15  1  0
 15 16  1  0
 16 17  1  0
 18 17  1  1
 18 19  1  0
 19 20  1  0
 20 21  1  0
 21 22  1  0
 22 23  1  0
 22 24  1  0
 22 25  1  0
 20 26  1  0
 26 27  1  0
 18 28  1  0
 13  4  1  0
 28 15  1  0
 12  7  1  0
 27 18  1  0
M  END
>  <AAScore>  (1) 
7.516641072349384

>  <RootName>  (1) 
./4ZLY/04_DeltaGEst/trajectory_02/rank_01/lead_0218

$$$$
