confid_17
     RDKit          3D

 27 30  0  0  0  0  0  0  0  0999 V2000
   24.4800   26.1000   36.1300 N   0  0  0  0  0  0  0  0  0  0  0  0
   25.2500   26.2500   34.9900 C   0  0  0  0  0  0  0  0  0  0  0  0
   24.7400   25.7600   33.9900 O   0  0  0  0  0  0  0  0  0  0  0  0
   26.5900   26.8900   34.9600 C   0  0  0  0  0  0  0  0  0  0  0  0
   27.0600   27.2400   36.1600 N   0  0  0  0  0  0  0  0  0  0  0  0
   28.3000   27.7100   36.2400 N   0  0  0  0  0  0  0  0  0  0  0  0
   29.0500   27.9600   35.1500 C   0  0  0  0  0  0  0  0  0  0  0  0
   30.3400   28.4900   35.2600 C   0  0  0  0  0  0  0  0  0  0  0  0
   31.1100   28.8200   34.1400 C   0  0  0  0  0  0  0  0  0  0  0  0
   30.5200   28.6700   32.8800 C   0  0  0  0  0  0  0  0  0  0  0  0
   29.2900   28.0200   32.7700 C   0  0  0  0  0  0  0  0  0  0  0  0
   28.5200   27.7100   33.8900 C   0  0  0  0  0  0  0  0  0  0  0  0
   27.2700   27.0800   33.7600 C   0  0  0  0  0  0  0  0  0  0  0  0
   26.7500   26.8800   32.4900 N   0  0  0  0  0  0  0  0  0  0  0  0
   23.0646   25.8646   36.1126 C   0  0  0  0  0  0  0  0  0  0  0  0
   22.4702   25.0072   36.9746 N   0  0  0  0  0  0  0  0  0  0  0  0
   21.1667   25.1331   36.6658 C   0  0  0  0  0  0  0  0  0  0  0  0
   20.0217   25.0817   37.6019 C   0  0  0  0  0  0  0  0  0  0  0  0
   19.1507   26.2695   37.1188 C   0  0  0  0  0  0  0  0  0  0  0  0
   19.7631   26.7768   35.8789 N   0  0  0  0  0  0  0  0  0  0  0  0
   20.9824   26.0663   35.7167 C   0  0  0  0  0  0  0  0  0  0  0  0
   22.1783   26.5897   35.3799 N   0  0  0  0  0  0  0  0  0  0  0  0
   22.4225   27.8698   34.7168 C   0  0  0  0  0  0  0  0  0  0  0  0
   18.9257   27.1397   34.7348 C   0  0  0  0  0  0  0  0  0  0  0  0
   17.9763   28.0663   35.1316 F   0  0  0  0  0  0  0  0  0  0  0  0
   19.6891   27.6930   33.7240 F   0  0  0  0  0  0  0  0  0  0  0  0
   18.2878   26.0106   34.2505 F   0  0  0  0  0  0  0  0  0  0  0  0
  1  2  1  0
  2  3  2  0
  2  4  1  0
  4  5  2  0
  5  6  1  0
  6  7  2  0
  7  8  1  0
  8  9  2  0
  9 10  1  0
 10 11  2  0
 11 12  1  0
 12 13  2  0
 13 14  1  0
  1 15  1  0
 15 16  2  0
 16 17  1  0
 17 18  1  0
 18 19  1  0
 19 20  1  0
 20 21  1  0
 21 22  1  0
 22 23  1  0
 20 24  1  0
 24 25  1  0
 24 26  1  0
 24 27  1  0
 13  4  1  0
 22 15  1  0
 12  7  1  0
 21 17  2  0
M  END
>  <AAScore>  (1) 
943.6412787965152

>  <RootName>  (1) 
./4ZLY/04_DeltaGEst/trajectory_00/rank_01/lead_0146

$$$$
