confid_2
     RDKit          3D

 28 31  0  0  0  0  0  0  0  0999 V2000
   24.5700   26.8800   35.5900 N   0  0  0  0  0  0  0  0  0  0  0  0
   25.5000   26.4000   34.6900 C   0  0  0  0  0  0  0  0  0  0  0  0
   25.1700   25.5200   33.9100 O   0  0  0  0  0  0  0  0  0  0  0  0
   26.8400   27.0200   34.7400 C   0  0  0  0  0  0  0  0  0  0  0  0
   27.3800   27.2800   35.9400 N   0  0  0  0  0  0  0  0  0  0  0  0
   28.6200   27.7400   36.0300 N   0  0  0  0  0  0  0  0  0  0  0  0
   29.3800   28.0000   34.9600 C   0  0  0  0  0  0  0  0  0  0  0  0
   30.6700   28.5000   35.1300 C   0  0  0  0  0  0  0  0  0  0  0  0
   31.5400   28.6100   34.0300 C   0  0  0  0  0  0  0  0  0  0  0  0
   31.0900   28.2200   32.7700 C   0  0  0  0  0  0  0  0  0  0  0  0
   29.8000   27.7000   32.6000 C   0  0  0  0  0  0  0  0  0  0  0  0
   28.9600   27.5500   33.7100 C   0  0  0  0  0  0  0  0  0  0  0  0
   27.6600   27.0300   33.5900 C   0  0  0  0  0  0  0  0  0  0  0  0
   27.1600   26.7400   32.3400 N   0  0  0  0  0  0  0  0  0  0  0  0
   23.5860   26.0714   36.2561 C   0  0  0  0  0  0  0  0  0  0  0  0
   22.8808   26.5473   37.2298 N   0  0  0  0  0  0  0  0  0  0  0  0
   22.1082   25.4797   37.7506 C   0  0  0  0  0  0  0  0  0  0  0  0
   22.3495   24.3526   37.1048 C   0  0  0  0  0  0  0  0  0  0  0  0
   21.6861   23.0418   37.4106 C   0  0  0  0  0  0  0  0  0  0  0  0
   22.0449   22.0206   36.4936 O   0  0  0  0  0  0  0  0  0  0  0  0
   21.6265   22.2577   35.1480 C   0  0  2  0  0  0  0  0  0  0  0  0
   21.4710   20.8578   34.5145 C   0  0  0  0  0  0  0  0  0  0  0  0
   22.7671   23.0242   34.4237 C   0  0  0  0  0  0  0  0  0  0  0  0
   22.7706   24.4013   34.7519 O   0  0  0  0  0  0  0  0  0  0  0  0
   23.3507   24.6045   36.0254 C   0  0  1  0  0  0  0  0  0  0  0  0
   20.3938   22.9915   35.1240 O   0  0  0  0  0  0  0  0  0  0  0  0
   19.7659   23.0610   33.8572 C   0  0  0  0  0  0  0  0  0  0  0  0
   18.8033   24.2377   33.8507 C   0  0  0  0  0  0  0  0  0  0  0  0
  1  2  1  0
  2  3  2  0
  2  4  1  0
  4  5  2  0
  5  6  1  0
  6  7  2  0
  7  8  1  0
  8  9  2  0
  9 10  1  0
 10 11  2  0
 11 12  1  0
 12 13  2  0
 13 14  1  0
  1 15  1  0
 15 16  2  0
 16 17  1  0
 17 18  2  0
 18 19  1  0
 19 20  1  0
 20 21  1  0
 21 22  1  6
 21 23  1  0
 23 24  1  0
 25 24  1  6
 21 26  1  0
 26 27  1  0
 27 28  1  0
 13  4  1  0
 25 15  1  0
 12  7  1  0
 25 18  1  0
M  END
>  <AAScore>  (1) 
777.5179715019142

>  <RootName>  (1) 
./4ZLY/04_DeltaGEst/trajectory_05/rank_00/lead_0092

$$$$
