confid_18
     RDKit          3D

 29 32  0  0  0  0  0  0  0  0999 V2000
   24.2000   26.2400   35.6900 N   0  0  0  0  0  0  0  0  0  0  0  0
   24.8500   26.2800   34.4800 C   0  0  0  0  0  0  0  0  0  0  0  0
   24.3100   25.7400   33.5400 O   0  0  0  0  0  0  0  0  0  0  0  0
   26.1800   26.9700   34.4700 C   0  0  0  0  0  0  0  0  0  0  0  0
   26.6500   27.6000   35.5500 N   0  0  0  0  0  0  0  0  0  0  0  0
   27.7900   28.2700   35.6200 N   0  0  0  0  0  0  0  0  0  0  0  0
   28.5400   28.3000   34.5100 C   0  0  0  0  0  0  0  0  0  0  0  0
   29.7700   28.9400   34.5600 C   0  0  0  0  0  0  0  0  0  0  0  0
   30.7000   28.8900   33.5000 C   0  0  0  0  0  0  0  0  0  0  0  0
   30.3700   28.1400   32.3700 C   0  0  0  0  0  0  0  0  0  0  0  0
   29.1200   27.5200   32.2800 C   0  0  0  0  0  0  0  0  0  0  0  0
   28.2100   27.6100   33.3300 C   0  0  0  0  0  0  0  0  0  0  0  0
   26.9700   26.9700   33.3100 C   0  0  0  0  0  0  0  0  0  0  0  0
   26.5300   26.2400   32.2200 N   0  0  0  0  0  0  0  0  0  0  0  0
   30.1291   29.7036   35.7286 N   0  0  0  0  0  0  0  0  0  0  0  0
   31.3907   29.4459   36.4329 C   0  0  0  0  0  0  0  0  0  0  0  0
   32.2933   30.6984   36.4063 C   0  0  0  0  0  0  0  0  0  0  0  0
   31.5469   31.9259   36.0428 N   0  0  0  0  0  0  0  0  0  0  0  0
   32.3437   33.1384   36.3273 C   0  0  0  0  0  0  0  0  0  0  0  0
   32.0095   34.2485   35.3113 C   0  0  2  0  0  0  0  0  0  0  0  0
   32.3137   33.8395   33.8809 C   0  0  0  0  0  0  0  0  0  0  0  0
   32.6390   35.1466   33.1877 C   0  0  0  0  0  0  0  0  0  0  0  0
   33.1849   36.0640   34.2028 N   0  0  0  0  0  0  0  0  0  0  0  0
   34.6317   36.3823   34.0651 C   0  0  0  0  0  0  0  0  0  0  0  0
   34.8598   37.3299   32.8818 C   0  0  0  0  0  0  0  0  0  0  0  0
   35.5431   35.1402   33.9619 C   0  0  0  0  0  0  0  0  0  0  0  0
   32.8330   35.5197   35.5285 C   0  0  0  0  0  0  0  0  0  0  0  0
   30.2342   31.9603   36.7180 C   0  0  0  0  0  0  0  0  0  0  0  0
   29.3328   30.8776   36.1123 C   0  0  0  0  0  0  0  0  0  0  0  0
  1  2  1  0
  2  3  2  0
  2  4  1  0
  4  5  2  0
  5  6  1  0
  6  7  2  0
  7  8  1  0
  8  9  2  0
  9 10  1  0
 10 11  2  0
 11 12  1  0
 12 13  2  0
 13 14  1  0
  8 15  1  0
 15 16  1  0
 16 17  1  0
 17 18  1  0
 18 19  1  0
 20 19  1  1
 20 21  1  0
 21 22  1  0
 22 23  1  0
 23 24  1  0
 24 25  1  0
 24 26  1  0
 23 27  1  0
 18 28  1  0
 28 29  1  0
 13  4  1  0
 29 15  1  0
 12  7  1  0
 27 20  1  0
M  END
>  <AAScore>  (1) 
-8.59162988246743

>  <RootName>  (1) 
./4ZLY/04_DeltaGEst/trajectory_04/rank_01/lead_0466

$$$$
