confid_19
     RDKit          3D

 31 35  0  0  0  0  0  0  0  0999 V2000
   25.3300   26.2600   34.7600 N   0  0  0  0  0  0  0  0  0  0  0  0
   26.1200   25.9200   33.6900 C   0  0  0  0  0  0  0  0  0  0  0  0
   25.6300   25.1100   32.9400 O   0  0  0  0  0  0  0  0  0  0  0  0
   27.5200   26.3800   33.4600 C   0  0  0  0  0  0  0  0  0  0  0  0
   28.1600   26.6300   34.6100 N   0  0  0  0  0  0  0  0  0  0  0  0
   29.4800   26.8500   34.5700 N   0  0  0  0  0  0  0  0  0  0  0  0
   30.1900   26.7800   33.4400 C   0  0  0  0  0  0  0  0  0  0  0  0
   31.5600   27.0500   33.5000 C   0  0  0  0  0  0  0  0  0  0  0  0
   32.2700   27.2400   32.3100 C   0  0  0  0  0  0  0  0  0  0  0  0
   31.6100   27.2500   31.0800 C   0  0  0  0  0  0  0  0  0  0  0  0
   30.2700   26.8700   31.0600 C   0  0  0  0  0  0  0  0  0  0  0  0
   29.5100   26.6900   32.2300 C   0  0  0  0  0  0  0  0  0  0  0  0
   28.1400   26.4100   32.2000 C   0  0  0  0  0  0  0  0  0  0  0  0
   27.4300   26.1300   31.0500 N   0  0  0  0  0  0  0  0  0  0  0  0
   26.5465   27.1377   30.4614 C   0  0  0  0  0  0  0  0  0  0  0  0
   26.7604   27.1581   28.9462 C   0  0  0  0  0  0  0  0  0  0  0  0
   26.5734   25.8231   28.3274 N   0  0  0  0  0  0  0  0  0  0  0  0
   27.3144   25.6327   27.0587 C   0  0  0  0  0  0  0  0  0  0  0  0
   28.8051   25.4300   27.2424 C   0  0  0  0  0  0  0  0  0  0  0  0
   29.3289   24.1421   27.4251 C   0  0  0  0  0  0  0  0  0  0  0  0
   30.7033   23.9768   27.5998 C   0  0  0  0  0  0  0  0  0  0  0  0
   31.5303   25.0529   27.5604 N   0  0  0  0  0  0  0  0  0  0  0  0
   31.0685   26.3172   27.3548 C   0  0  0  0  0  0  0  0  0  0  0  0
   29.6884   26.5210   27.1832 C   0  0  0  0  0  0  0  0  0  0  0  0
   32.0000   27.4181   27.3247 N   0  0  0  0  0  0  0  0  0  0  0  0
   33.4320   27.2441   27.4991 C   0  0  0  0  0  0  0  0  0  0  0  0
   33.9893   28.6423   27.7191 C   0  0  0  0  0  0  0  0  0  0  0  0
   32.9252   29.6001   27.1928 C   0  0  0  0  0  0  0  0  0  0  0  0
   31.6206   28.8163   27.1976 C   0  0  0  0  0  0  0  0  0  0  0  0
   26.5884   24.6588   29.2446 C   0  0  0  0  0  0  0  0  0  0  0  0
   27.5871   24.8238   30.4002 C   0  0  0  0  0  0  0  0  0  0  0  0
  1  2  1  0
  2  3  2  0
  2  4  1  0
  4  5  2  0
  5  6  1  0
  6  7  2  0
  7  8  1  0
  8  9  2  0
  9 10  1  0
 10 11  2  0
 11 12  1  0
 12 13  2  0
 13 14  1  0
 14 15  1  0
 15 16  1  0
 16 17  1  0
 17 18  1  0
 18 19  1  0
 19 20  2  0
 20 21  1  0
 21 22  2  0
 22 23  1  0
 23 24  2  0
 23 25  1  0
 25 26  1  0
 26 27  1  0
 27 28  1  0
 28 29  1  0
 17 30  1  0
 30 31  1  0
 13  4  1  0
 31 14  1  0
 12  7  1  0
 24 19  1  0
 29 25  1  0
M  END
>  <AAScore>  (1) 
-3.8934209379289935

>  <RootName>  (1) 
./4ZLY/04_DeltaGEst/trajectory_03/rank_01/lead_0460

$$$$
