confid_9
     RDKit          3D

 28 31  0  0  0  0  0  0  0  0999 V2000
   25.3300   26.2600   34.7600 N   0  0  0  0  0  0  0  0  0  0  0  0
   26.1200   25.9200   33.6900 C   0  0  0  0  0  0  0  0  0  0  0  0
   25.6300   25.1100   32.9400 O   0  0  0  0  0  0  0  0  0  0  0  0
   27.5200   26.3800   33.4600 C   0  0  0  0  0  0  0  0  0  0  0  0
   28.1600   26.6300   34.6100 N   0  0  0  0  0  0  0  0  0  0  0  0
   29.4800   26.8500   34.5700 N   0  0  0  0  0  0  0  0  0  0  0  0
   30.1900   26.7800   33.4400 C   0  0  0  0  0  0  0  0  0  0  0  0
   31.5600   27.0500   33.5000 C   0  0  0  0  0  0  0  0  0  0  0  0
   32.2700   27.2400   32.3100 C   0  0  0  0  0  0  0  0  0  0  0  0
   31.6100   27.2500   31.0800 C   0  0  0  0  0  0  0  0  0  0  0  0
   30.2700   26.8700   31.0600 C   0  0  0  0  0  0  0  0  0  0  0  0
   29.5100   26.6900   32.2300 C   0  0  0  0  0  0  0  0  0  0  0  0
   28.1400   26.4100   32.2000 C   0  0  0  0  0  0  0  0  0  0  0  0
   27.4300   26.1300   31.0500 N   0  0  0  0  0  0  0  0  0  0  0  0
   23.9190   25.9861   34.8718 C   0  0  0  0  0  0  0  0  0  0  0  0
   23.1499   25.5504   33.8575 N   0  0  0  0  0  0  0  0  0  0  0  0
   21.9078   25.4861   34.3838 C   0  0  0  0  0  0  0  0  0  0  0  0
   20.7249   25.0861   33.5368 C   0  0  0  0  0  0  0  0  0  0  0  0
   19.7719   26.2008   33.2774 N   0  0  0  0  0  0  0  0  0  0  0  0
   19.7813   26.5945   31.8591 C   0  0  0  0  0  0  0  0  0  0  0  0
   18.6580   27.5861   31.5654 C   0  0  0  0  0  0  0  0  0  0  0  0
   20.1124   27.2974   34.0190 O   0  0  0  0  0  0  0  0  0  0  0  0
   19.2145   27.3660   35.1020 C   0  0  0  0  0  0  0  0  0  0  0  0
   19.3272   26.1582   36.0494 C   0  0  0  0  0  0  0  0  0  0  0  0
   20.7317   25.9382   36.6429 C   0  0  0  0  0  0  0  0  0  0  0  0
   21.8549   25.9069   35.6807 N   0  0  0  0  0  0  0  0  0  0  0  0
   23.1419   26.1846   35.9955 C   0  0  0  0  0  0  0  0  0  0  0  0
   23.6231   26.6682   37.3345 C   0  0  0  0  0  0  0  0  0  0  0  0
  1  2  1  0
  2  3  2  0
  2  4  1  0
  4  5  2  0
  5  6  1  0
  6  7  2  0
  7  8  1  0
  8  9  2  0
  9 10  1  0
 10 11  2  0
 11 12  1  0
 12 13  2  0
 13 14  1  0
  1 15  1  0
 15 16  1  0
 16 17  2  0
 17 18  1  0
 18 19  1  0
 19 20  1  0
 20 21  1  0
 19 22  1  0
 22 23  1  0
 23 24  1  0
 24 25  1  0
 25 26  1  0
 26 27  1  0
 27 28  1  0
 13  4  1  0
 27 15  2  0
 12  7  1  0
 26 17  1  0
M  END
>  <AAScore>  (1) 
2951.696382828888

>  <RootName>  (1) 
./4ZLY/04_DeltaGEst/trajectory_03/rank_00/lead_0327

$$$$
