confid_6
     RDKit          3D

 28 32  0  0  0  0  0  0  0  0999 V2000
   25.3300   26.2600   34.7600 N   0  0  0  0  0  0  0  0  0  0  0  0
   26.1200   25.9200   33.6900 C   0  0  0  0  0  0  0  0  0  0  0  0
   25.6300   25.1100   32.9400 O   0  0  0  0  0  0  0  0  0  0  0  0
   27.5200   26.3800   33.4600 C   0  0  0  0  0  0  0  0  0  0  0  0
   28.1600   26.6300   34.6100 N   0  0  0  0  0  0  0  0  0  0  0  0
   29.4800   26.8500   34.5700 N   0  0  0  0  0  0  0  0  0  0  0  0
   30.1900   26.7800   33.4400 C   0  0  0  0  0  0  0  0  0  0  0  0
   31.5600   27.0500   33.5000 C   0  0  0  0  0  0  0  0  0  0  0  0
   32.2700   27.2400   32.3100 C   0  0  0  0  0  0  0  0  0  0  0  0
   31.6100   27.2500   31.0800 C   0  0  0  0  0  0  0  0  0  0  0  0
   30.2700   26.8700   31.0600 C   0  0  0  0  0  0  0  0  0  0  0  0
   29.5100   26.6900   32.2300 C   0  0  0  0  0  0  0  0  0  0  0  0
   28.1400   26.4100   32.2000 C   0  0  0  0  0  0  0  0  0  0  0  0
   27.4300   26.1300   31.0500 N   0  0  0  0  0  0  0  0  0  0  0  0
   24.1488   25.5618   35.2152 C   0  0  0  0  0  0  0  0  0  0  0  0
   23.9711   24.3251   34.8252 N   0  0  0  0  0  0  0  0  0  0  0  0
   23.0113   23.2702   35.0163 C   0  0  0  0  0  0  0  0  0  0  0  0
   22.0895   23.2134   35.9686 C   0  0  0  0  0  0  0  0  0  0  0  0
   21.3093   22.1193   36.6415 C   0  0  0  0  0  0  0  0  0  0  0  0
   20.8203   22.9240   37.6640 O   0  0  0  0  0  0  0  0  0  0  0  0
   21.4266   24.0104   37.0435 C   0  0  1  0  0  0  0  0  0  0  0  0
   22.4510   24.7200   37.9187 C   0  0  0  0  0  0  0  0  0  0  0  0
   22.6671   26.0623   37.3090 C   0  0  0  0  0  0  0  0  0  0  0  0
   23.2125   26.3487   36.0587 C   0  0  0  0  0  0  0  0  0  0  0  0
   22.9606   27.6958   35.8437 C   0  0  0  0  0  0  0  0  0  0  0  0
   22.2552   28.2044   36.8665 N   0  0  0  0  0  0  0  0  0  0  0  0
   22.0583   27.2211   37.7567 C   0  0  0  0  0  0  0  0  0  0  0  0
   21.6873   29.8427   37.0053 Cl  0  0  0  0  0  0  0  0  0  0  0  0
  1  2  1  0
  2  3  2  0
  2  4  1  0
  4  5  2  0
  5  6  1  0
  6  7  2  0
  7  8  1  0
  8  9  2  0
  9 10  1  0
 10 11  2  0
 11 12  1  0
 12 13  2  0
 13 14  1  0
  1 15  1  0
 15 16  2  0
 16 17  1  0
 17 18  2  0
 18 19  1  0
 19 20  1  0
 20 21  1  0
 21 22  1  1
 22 23  1  0
 23 24  1  0
 24 25  2  0
 25 26  1  0
 26 27  1  0
 26 28  1  0
 13  4  1  0
 24 15  1  0
 12  7  1  0
 21 18  1  0
 27 23  2  0
M  END
>  <AAScore>  (1) 
1883.5876340667444

>  <RootName>  (1) 
./4ZLY/04_DeltaGEst/trajectory_03/rank_00/lead_0250

$$$$
