confid_4
     RDKit          3D

 28 31  0  0  0  0  0  0  0  0999 V2000
   24.6900   26.1200   35.5300 N   0  0  0  0  0  0  0  0  0  0  0  0
   25.6600   25.6700   34.6600 C   0  0  0  0  0  0  0  0  0  0  0  0
   25.2400   25.0100   33.7200 O   0  0  0  0  0  0  0  0  0  0  0  0
   27.0300   26.2200   34.8800 C   0  0  0  0  0  0  0  0  0  0  0  0
   27.3500   26.7300   36.0700 N   0  0  0  0  0  0  0  0  0  0  0  0
   28.5700   27.1800   36.3300 N   0  0  0  0  0  0  0  0  0  0  0  0
   29.5300   27.1100   35.3900 C   0  0  0  0  0  0  0  0  0  0  0  0
   30.8300   27.5700   35.6500 C   0  0  0  0  0  0  0  0  0  0  0  0
   31.8500   27.5400   34.6900 C   0  0  0  0  0  0  0  0  0  0  0  0
   31.5100   27.1200   33.4000 C   0  0  0  0  0  0  0  0  0  0  0  0
   30.2200   26.6300   33.1100 C   0  0  0  0  0  0  0  0  0  0  0  0
   29.2400   26.6600   34.1000 C   0  0  0  0  0  0  0  0  0  0  0  0
   27.9300   26.2600   33.8100 C   0  0  0  0  0  0  0  0  0  0  0  0
   27.5200   25.7100   32.6100 N   0  0  0  0  0  0  0  0  0  0  0  0
   31.1415   28.0703   36.9587 N   0  0  0  0  0  0  0  0  0  0  0  0
   32.0590   27.3177   37.8209 C   0  0  0  0  0  0  0  0  0  0  0  0
   31.9694   27.8132   39.2652 C   0  0  0  0  0  0  0  0  0  0  0  0
   30.5672   28.1598   39.5610 N   0  0  0  0  0  0  0  0  0  0  0  0
   30.3400   28.3172   41.0104 C   0  0  0  0  0  0  0  0  0  0  0  0
   30.1963   26.9639   41.6704 C   0  0  0  0  0  0  0  0  0  0  0  0
   29.1011   26.1064   41.3871 C   0  0  0  0  0  0  0  0  0  0  0  0
   28.0281   26.4921   40.4008 C   0  0  0  0  0  0  0  0  0  0  0  0
   29.0304   24.8509   42.0165 C   0  0  0  0  0  0  0  0  0  0  0  0
   30.0201   24.4492   42.9154 C   0  0  0  0  0  0  0  0  0  0  0  0
   31.0953   25.2908   43.1939 C   0  0  0  0  0  0  0  0  0  0  0  0
   31.1858   26.5385   42.5754 C   0  0  0  0  0  0  0  0  0  0  0  0
   30.1667   29.3834   38.8321 C   0  0  0  0  0  0  0  0  0  0  0  0
   30.6599   29.3938   37.3688 C   0  0  0  0  0  0  0  0  0  0  0  0
  1  2  1  0
  2  3  2  0
  2  4  1  0
  4  5  2  0
  5  6  1  0
  6  7  2  0
  7  8  1  0
  8  9  2  0
  9 10  1  0
 10 11  2  0
 11 12  1  0
 12 13  2  0
 13 14  1  0
  8 15  1  0
 15 16  1  0
 16 17  1  0
 17 18  1  0
 18 19  1  0
 19 20  1  0
 20 21  2  0
 21 22  1  0
 21 23  1  0
 23 24  2  0
 24 25  1  0
 25 26  2  0
 18 27  1  0
 27 28  1  0
 13  4  1  0
 28 15  1  0
 12  7  1  0
 26 20  1  0
M  END
>  <AAScore>  (1) 
54.12328656949634

>  <RootName>  (1) 
./4ZLY/04_DeltaGEst/trajectory_02/rank_01/lead_0173

$$$$
