confid_9
     RDKit          3D

 29 32  0  0  0  0  0  0  0  0999 V2000
   24.6900   26.1200   35.5300 N   0  0  0  0  0  0  0  0  0  0  0  0
   25.6600   25.6700   34.6600 C   0  0  0  0  0  0  0  0  0  0  0  0
   25.2400   25.0100   33.7200 O   0  0  0  0  0  0  0  0  0  0  0  0
   27.0300   26.2200   34.8800 C   0  0  0  0  0  0  0  0  0  0  0  0
   27.3500   26.7300   36.0700 N   0  0  0  0  0  0  0  0  0  0  0  0
   28.5700   27.1800   36.3300 N   0  0  0  0  0  0  0  0  0  0  0  0
   29.5300   27.1100   35.3900 C   0  0  0  0  0  0  0  0  0  0  0  0
   30.8300   27.5700   35.6500 C   0  0  0  0  0  0  0  0  0  0  0  0
   31.8500   27.5400   34.6900 C   0  0  0  0  0  0  0  0  0  0  0  0
   31.5100   27.1200   33.4000 C   0  0  0  0  0  0  0  0  0  0  0  0
   30.2200   26.6300   33.1100 C   0  0  0  0  0  0  0  0  0  0  0  0
   29.2400   26.6600   34.1000 C   0  0  0  0  0  0  0  0  0  0  0  0
   27.9300   26.2600   33.8100 C   0  0  0  0  0  0  0  0  0  0  0  0
   27.5200   25.7100   32.6100 N   0  0  0  0  0  0  0  0  0  0  0  0
   23.2844   26.1647   35.2237 C   0  0  0  0  0  0  0  0  0  0  0  0
   22.4399   25.7692   36.1275 N   0  0  0  0  0  0  0  0  0  0  0  0
   21.0038   25.7558   36.0869 C   0  0  0  0  0  0  0  0  0  0  0  0
   20.1972   25.6917   34.9981 C   0  0  0  0  0  0  0  0  0  0  0  0
   18.7099   25.8785   35.2133 C   0  0  0  0  0  0  0  0  0  0  0  0
   17.9285   24.8574   34.5049 N   0  0  0  0  0  0  0  0  0  0  0  0
   18.4010   24.2606   33.2803 C   0  0  0  0  0  0  0  0  0  0  0  0
   17.5770   23.6748   32.5218 O   0  0  0  0  0  0  0  0  0  0  0  0
   19.8898   24.1890   32.9762 C   0  0  0  0  0  0  0  0  0  0  0  0
   20.4301   22.9008   33.6414 C   0  0  0  0  0  0  0  0  0  0  0  0
   20.0936   24.0791   31.4426 C   0  0  0  0  0  0  0  0  0  0  0  0
   20.5904   25.4819   33.5342 C   0  0  2  0  0  0  0  0  0  0  0  0
   22.0911   25.5694   33.1729 C   0  0  0  0  0  0  0  0  0  0  0  0
   22.8084   26.6910   33.9080 C   0  0  0  0  0  0  0  0  0  0  0  0
   16.5730   24.5434   34.9714 C   0  0  0  0  0  0  0  0  0  0  0  0
  1  2  1  0
  2  3  2  0
  2  4  1  0
  4  5  2  0
  5  6  1  0
  6  7  2  0
  7  8  1  0
  8  9  2  0
  9 10  1  0
 10 11  2  0
 11 12  1  0
 12 13  2  0
 13 14  1  0
  1 15  1  0
 15 16  2  0
 16 17  1  0
 17 18  2  0
 18 19  1  0
 19 20  1  0
 20 21  1  0
 21 22  2  0
 21 23  1  0
 23 24  1  0
 23 25  1  0
 23 26  1  0
 26 27  1  1
 27 28  1  0
 20 29  1  0
 13  4  1  0
 28 15  1  0
 12  7  1  0
 26 18  1  0
M  END
>  <AAScore>  (1) 
2417.827248646526

>  <RootName>  (1) 
./4ZLY/04_DeltaGEst/trajectory_02/rank_00/lead_0015

$$$$
