confid_5
     RDKit          3D

 30 33  0  0  0  0  0  0  0  0999 V2000
   24.5700   26.8800   35.5900 N   0  0  0  0  0  0  0  0  0  0  0  0
   25.5000   26.4000   34.6900 C   0  0  0  0  0  0  0  0  0  0  0  0
   25.1700   25.5200   33.9100 O   0  0  0  0  0  0  0  0  0  0  0  0
   26.8400   27.0200   34.7400 C   0  0  0  0  0  0  0  0  0  0  0  0
   27.3800   27.2800   35.9400 N   0  0  0  0  0  0  0  0  0  0  0  0
   28.6200   27.7400   36.0300 N   0  0  0  0  0  0  0  0  0  0  0  0
   29.3800   28.0000   34.9600 C   0  0  0  0  0  0  0  0  0  0  0  0
   30.6700   28.5000   35.1300 C   0  0  0  0  0  0  0  0  0  0  0  0
   31.5400   28.6100   34.0300 C   0  0  0  0  0  0  0  0  0  0  0  0
   31.0900   28.2200   32.7700 C   0  0  0  0  0  0  0  0  0  0  0  0
   29.8000   27.7000   32.6000 C   0  0  0  0  0  0  0  0  0  0  0  0
   28.9600   27.5500   33.7100 C   0  0  0  0  0  0  0  0  0  0  0  0
   27.6600   27.0300   33.5900 C   0  0  0  0  0  0  0  0  0  0  0  0
   27.1600   26.7400   32.3400 N   0  0  0  0  0  0  0  0  0  0  0  0
   33.1591   29.2699   34.2343 S   0  0  0  0  0  6  0  0  0  0  0  0
   34.0908   28.6302   33.2430 O   0  0  0  0  0  0  0  0  0  0  0  0
   33.6564   28.9710   35.6218 O   0  0  0  0  0  0  0  0  0  0  0  0
   33.1126   31.0396   33.9558 C   0  0  2  0  0  0  0  0  0  0  0  0
   34.4695   31.6941   34.1267 C   0  0  0  0  0  0  0  0  0  0  0  0
   34.2003   33.0968   34.4651 N   0  0  0  0  0  0  0  0  0  0  0  0
   35.2445   33.6905   35.3142 C   0  0  0  0  0  3  0  0  0  0  0  0
   36.4659   34.1422   34.5013 C   0  0  0  0  0  0  0  0  0  0  0  0
   36.3007   35.5323   33.8437 C   0  0  0  0  0  0  0  0  0  0  0  0
   35.4066   35.4838   32.5788 C   0  0  0  0  0  0  0  0  0  0  0  0
   34.9465   36.8893   32.1815 C   0  0  0  0  0  0  0  0  0  0  0  0
   34.0819   37.5391   33.2817 C   0  0  0  0  0  0  0  0  0  0  0  0
   34.3890   37.0146   34.6988 C   0  0  0  0  0  0  0  0  0  0  0  0
   35.8654   36.6304   34.8565 C   0  0  0  0  0  0  0  0  0  0  0  0
   32.8917   33.1305   35.1354 C   0  0  0  0  0  0  0  0  0  0  0  0
   32.2314   31.7671   34.9528 C   0  0  0  0  0  0  0  0  0  0  0  0
  1  2  1  0
  2  3  2  0
  2  4  1  0
  4  5  2  0
  5  6  1  0
  6  7  2  0
  7  8  1  0
  8  9  2  0
  9 10  1  0
 10 11  2  0
 11 12  1  0
 12 13  2  0
 13 14  1  0
  9 15  1  0
 15 16  2  0
 15 17  2  0
 18 15  1  1
 18 19  1  0
 19 20  1  0
 20 21  1  0
 21 22  1  0
 22 23  1  0
 23 24  1  0
 24 25  1  0
 25 26  1  0
 26 27  1  0
 27 28  1  0
 20 29  1  0
 29 30  1  0
 13  4  1  0
 30 18  1  0
 12  7  1  0
 28 23  1  0
M  RAD  1  21   2
M  END
>  <AAScore>  (1) 
-3.817768034180152

>  <RootName>  (1) 
./4ZLY/04_DeltaGEst/trajectory_05/rank_01/lead_0455

$$$$
