confid_15
     RDKit          3D

 28 32  0  0  0  0  0  0  0  0999 V2000
   24.4800   26.1000   36.1300 N   0  0  0  0  0  0  0  0  0  0  0  0
   25.2500   26.2500   34.9900 C   0  0  0  0  0  0  0  0  0  0  0  0
   24.7400   25.7600   33.9900 O   0  0  0  0  0  0  0  0  0  0  0  0
   26.5900   26.8900   34.9600 C   0  0  0  0  0  0  0  0  0  0  0  0
   27.0600   27.2400   36.1600 N   0  0  0  0  0  0  0  0  0  0  0  0
   28.3000   27.7100   36.2400 N   0  0  0  0  0  0  0  0  0  0  0  0
   29.0500   27.9600   35.1500 C   0  0  0  0  0  0  0  0  0  0  0  0
   30.3400   28.4900   35.2600 C   0  0  0  0  0  0  0  0  0  0  0  0
   31.1100   28.8200   34.1400 C   0  0  0  0  0  0  0  0  0  0  0  0
   30.5200   28.6700   32.8800 C   0  0  0  0  0  0  0  0  0  0  0  0
   29.2900   28.0200   32.7700 C   0  0  0  0  0  0  0  0  0  0  0  0
   28.5200   27.7100   33.8900 C   0  0  0  0  0  0  0  0  0  0  0  0
   27.2700   27.0800   33.7600 C   0  0  0  0  0  0  0  0  0  0  0  0
   26.7500   26.8800   32.4900 N   0  0  0  0  0  0  0  0  0  0  0  0
   23.0614   25.8795   36.1447 C   0  0  0  0  0  0  0  0  0  0  0  0
   22.3111   26.3837   35.2041 N   0  0  0  0  0  0  0  0  0  0  0  0
   20.8898   26.2275   35.1250 C   0  0  0  0  0  0  0  0  0  0  0  0
   20.1119   26.6233   36.1241 C   0  0  0  0  0  0  0  0  0  0  0  0
   18.6678   26.6562   36.5201 C   0  0  0  0  0  0  0  0  0  0  0  0
   18.8783   27.3448   37.7141 O   0  0  0  0  0  0  0  0  0  0  0  0
   20.2432   27.3430   37.4411 C   0  0  1  0  0  0  0  0  0  0  0  0
   21.0495   26.6091   38.5444 C   0  0  0  0  0  0  0  0  0  0  0  0
   21.5814   25.2543   38.1549 C   0  0  0  0  0  0  0  0  0  0  0  0
   21.3773   24.0754   38.8493 C   0  0  0  0  0  0  0  0  0  0  0  0
   22.1859   23.1389   38.2304 C   0  0  0  0  0  0  0  0  0  0  0  0
   22.3608   21.7150   38.6531 C   0  0  0  0  0  0  0  0  0  0  0  0
   22.8497   23.6943   37.2407 O   0  0  0  0  0  0  0  0  0  0  0  0
   22.5106   24.9614   37.1660 C   0  0  0  0  0  0  0  0  0  0  0  0
  1  2  1  0
  2  3  2  0
  2  4  1  0
  4  5  2  0
  5  6  1  0
  6  7  2  0
  7  8  1  0
  8  9  2  0
  9 10  1  0
 10 11  2  0
 11 12  1  0
 12 13  2  0
 13 14  1  0
  1 15  1  0
 15 16  2  0
 16 17  1  0
 17 18  2  0
 18 19  1  0
 19 20  1  0
 20 21  1  0
 21 22  1  1
 22 23  1  0
 23 24  1  0
 24 25  2  0
 25 26  1  0
 25 27  1  0
 27 28  1  0
 13  4  1  0
 28 15  1  0
 12  7  1  0
 21 18  1  0
 28 23  2  0
M  END
>  <AAScore>  (1) 
563.1118043863457

>  <RootName>  (1) 
./4ZLY/04_DeltaGEst/trajectory_00/rank_01/lead_0467

$$$$
