confid_3
     RDKit          3D

 27 30  0  0  0  0  0  0  0  0999 V2000
   24.2000   26.2400   35.6900 N   0  0  0  0  0  0  0  0  0  0  0  0
   24.8500   26.2800   34.4800 C   0  0  0  0  0  0  0  0  0  0  0  0
   24.3100   25.7400   33.5400 O   0  0  0  0  0  0  0  0  0  0  0  0
   26.1800   26.9700   34.4700 C   0  0  0  0  0  0  0  0  0  0  0  0
   26.6500   27.6000   35.5500 N   0  0  0  0  0  0  0  0  0  0  0  0
   27.7900   28.2700   35.6200 N   0  0  0  0  0  0  0  0  0  0  0  0
   28.5400   28.3000   34.5100 C   0  0  0  0  0  0  0  0  0  0  0  0
   29.7700   28.9400   34.5600 C   0  0  0  0  0  0  0  0  0  0  0  0
   30.7000   28.8900   33.5000 C   0  0  0  0  0  0  0  0  0  0  0  0
   30.3700   28.1400   32.3700 C   0  0  0  0  0  0  0  0  0  0  0  0
   29.1200   27.5200   32.2800 C   0  0  0  0  0  0  0  0  0  0  0  0
   28.2100   27.6100   33.3300 C   0  0  0  0  0  0  0  0  0  0  0  0
   26.9700   26.9700   33.3100 C   0  0  0  0  0  0  0  0  0  0  0  0
   26.5300   26.2400   32.2200 N   0  0  0  0  0  0  0  0  0  0  0  0
   30.1415   29.6637   35.7422 N   0  0  0  0  0  0  0  0  0  0  0  0
   31.0770   29.0355   36.6800 C   0  0  0  0  0  0  0  0  0  0  0  0
   30.8527   29.5684   38.0920 C   0  0  0  0  0  0  0  0  0  0  0  0
   30.9201   31.0694   38.0966 C   0  0  0  0  0  0  0  0  0  0  0  0
   31.4269   31.7504   39.2137 C   0  0  0  0  0  0  0  0  0  0  0  0
   31.4426   33.1463   39.2421 C   0  0  0  0  0  0  0  0  0  0  0  0
   30.9385   33.8819   38.1600 C   0  0  0  0  0  0  0  0  0  0  0  0
   30.9643   35.3866   38.1838 C   0  0  0  0  0  0  0  0  0  0  0  0
   32.1408   35.8747   37.4575 N   0  0  0  0  0  0  0  0  0  0  0  0
   32.1366   37.3380   37.4127 C   0  0  0  0  0  0  0  0  0  0  0  0
   30.4402   33.2027   37.0373 C   0  0  0  0  0  0  0  0  0  0  0  0
   30.4257   31.7995   36.9981 C   0  0  0  0  0  0  0  0  0  0  0  0
   29.8189   31.0994   35.8017 C   0  0  0  0  0  0  0  0  0  0  0  0
  1  2  1  0
  2  3  2  0
  2  4  1  0
  4  5  2  0
  5  6  1  0
  6  7  2  0
  7  8  1  0
  8  9  2  0
  9 10  1  0
 10 11  2  0
 11 12  1  0
 12 13  2  0
 13 14  1  0
  8 15  1  0
 15 16  1  0
 16 17  1  0
 17 18  1  0
 18 19  2  0
 19 20  1  0
 20 21  2  0
 21 22  1  0
 22 23  1  0
 23 24  1  0
 21 25  1  0
 25 26  2  0
 26 27  1  0
 13  4  1  0
 27 15  1  0
 12  7  1  0
 26 18  1  0
M  END
>  <AAScore>  (1) 
-6.458293760045226

>  <RootName>  (1) 
./4ZLY/04_DeltaGEst/trajectory_04/rank_01/lead_0237

$$$$
