confid_1
     RDKit          3D

 27 30  0  0  0  0  0  0  0  0999 V2000
   25.3300   26.2600   34.7600 N   0  0  0  0  0  0  0  0  0  0  0  0
   26.1200   25.9200   33.6900 C   0  0  0  0  0  0  0  0  0  0  0  0
   25.6300   25.1100   32.9400 O   0  0  0  0  0  0  0  0  0  0  0  0
   27.5200   26.3800   33.4600 C   0  0  0  0  0  0  0  0  0  0  0  0
   28.1600   26.6300   34.6100 N   0  0  0  0  0  0  0  0  0  0  0  0
   29.4800   26.8500   34.5700 N   0  0  0  0  0  0  0  0  0  0  0  0
   30.1900   26.7800   33.4400 C   0  0  0  0  0  0  0  0  0  0  0  0
   31.5600   27.0500   33.5000 C   0  0  0  0  0  0  0  0  0  0  0  0
   32.2700   27.2400   32.3100 C   0  0  0  0  0  0  0  0  0  0  0  0
   31.6100   27.2500   31.0800 C   0  0  0  0  0  0  0  0  0  0  0  0
   30.2700   26.8700   31.0600 C   0  0  0  0  0  0  0  0  0  0  0  0
   29.5100   26.6900   32.2300 C   0  0  0  0  0  0  0  0  0  0  0  0
   28.1400   26.4100   32.2000 C   0  0  0  0  0  0  0  0  0  0  0  0
   27.4300   26.1300   31.0500 N   0  0  0  0  0  0  0  0  0  0  0  0
   26.5171   27.1339   30.4959 C   0  0  0  0  0  0  0  0  0  0  0  0
   26.6376   27.1623   28.9703 C   0  0  0  0  0  0  0  0  0  0  0  0
   26.5716   25.8101   28.3914 N   0  0  0  0  0  0  0  0  0  0  0  0
   26.3887   25.6654   26.9677 C   0  0  0  0  0  0  0  0  0  0  0  0
   25.9212   24.5418   26.3042 C   0  0  0  0  0  0  0  0  0  0  0  0
   25.8914   24.8816   24.9637 C   0  0  0  0  0  0  0  0  0  0  0  0
   25.4819   23.9603   23.8552 C   0  0  0  0  0  0  0  0  0  0  0  0
   26.6252   23.4158   23.2599 O   0  0  0  0  0  0  0  0  0  0  0  0
   26.3398   26.1455   24.7919 N   0  0  0  0  0  0  0  0  0  0  0  0
   26.4403   26.8772   23.5321 C   0  0  0  0  0  0  0  0  0  0  0  0
   26.6289   26.6380   26.0122 C   0  0  0  0  0  0  0  0  0  0  0  0
   26.5725   24.6285   29.2681 C   0  0  0  0  0  0  0  0  0  0  0  0
   27.5674   24.8096   30.4202 C   0  0  0  0  0  0  0  0  0  0  0  0
  1  2  1  0
  2  3  2  0
  2  4  1  0
  4  5  2  0
  5  6  1  0
  6  7  2  0
  7  8  1  0
  8  9  2  0
  9 10  1  0
 10 11  2  0
 11 12  1  0
 12 13  2  0
 13 14  1  0
 14 15  1  0
 15 16  1  0
 16 17  1  0
 17 18  1  0
 18 19  1  0
 19 20  2  0
 20 21  1  0
 21 22  1  0
 20 23  1  0
 23 24  1  0
 23 25  1  0
 17 26  1  0
 26 27  1  0
 13  4  1  0
 27 14  1  0
 12  7  1  0
 25 18  2  0
M  END
>  <AAScore>  (1) 
11.022255034344475

>  <RootName>  (1) 
./4ZLY/04_DeltaGEst/trajectory_03/rank_01/lead_0083

$$$$
