confid_14
     RDKit          3D

 30 34  0  0  0  0  0  0  0  0999 V2000
   24.5700   26.8800   35.5900 N   0  0  0  0  0  0  0  0  0  0  0  0
   25.5000   26.4000   34.6900 C   0  0  0  0  0  0  0  0  0  0  0  0
   25.1700   25.5200   33.9100 O   0  0  0  0  0  0  0  0  0  0  0  0
   26.8400   27.0200   34.7400 C   0  0  0  0  0  0  0  0  0  0  0  0
   27.3800   27.2800   35.9400 N   0  0  0  0  0  0  0  0  0  0  0  0
   28.6200   27.7400   36.0300 N   0  0  0  0  0  0  0  0  0  0  0  0
   29.3800   28.0000   34.9600 C   0  0  0  0  0  0  0  0  0  0  0  0
   30.6700   28.5000   35.1300 C   0  0  0  0  0  0  0  0  0  0  0  0
   31.5400   28.6100   34.0300 C   0  0  0  0  0  0  0  0  0  0  0  0
   31.0900   28.2200   32.7700 C   0  0  0  0  0  0  0  0  0  0  0  0
   29.8000   27.7000   32.6000 C   0  0  0  0  0  0  0  0  0  0  0  0
   28.9600   27.5500   33.7100 C   0  0  0  0  0  0  0  0  0  0  0  0
   27.6600   27.0300   33.5900 C   0  0  0  0  0  0  0  0  0  0  0  0
   27.1600   26.7400   32.3400 N   0  0  0  0  0  0  0  0  0  0  0  0
   23.2438   26.1935   35.4160 C   0  0  0  0  0  0  0  0  0  0  0  0
   23.2201   25.6008   36.5238 N   0  0  0  0  0  0  0  0  0  0  0  0
   22.3583   24.7190   37.1886 C   0  0  0  0  0  0  0  0  0  0  0  0
   21.0968   25.1365   36.8964 C   0  0  0  0  0  0  0  0  0  0  0  0
   19.8420   25.5515   36.6059 C   0  0  2  0  0  0  0  0  0  0  0  0
   19.8721   27.1071   36.4914 C   0  0  0  0  0  0  0  0  0  0  0  0
   20.0514   27.4052   35.1124 N   0  0  0  0  0  0  0  0  0  0  0  0
   18.9026   28.2925   34.8695 C   0  0  0  0  0  0  0  0  0  0  0  0
   18.0508   27.6582   33.7776 C   0  0  0  0  0  0  0  0  0  0  0  0
   18.4017   26.3461   33.5396 O   0  0  0  0  0  0  0  0  0  0  0  0
   18.8071   26.0052   32.2882 C   0  0  0  0  0  0  0  0  0  0  0  0
   20.2893   25.5922   32.3968 C   0  0  0  0  0  0  0  0  0  0  0  0
   21.0626   26.8194   32.7648 C   0  0  0  0  0  0  0  0  0  0  0  0
   21.1228   26.9091   34.2900 C   0  0  0  0  0  0  0  0  0  0  0  0
   22.2316   26.5092   34.5533 N   0  0  0  0  0  0  0  0  0  0  0  0
   19.7462   24.7113   37.6806 C   0  0  0  0  0  0  0  0  0  0  0  0
  1  2  1  0
  2  3  2  0
  2  4  1  0
  4  5  2  0
  5  6  1  0
  6  7  2  0
  7  8  1  0
  8  9  2  0
  9 10  1  0
 10 11  2  0
 11 12  1  0
 12 13  2  0
 13 14  1  0
  1 15  1  0
 15 16  2  0
 16 17  1  0
 17 18  2  0
 18 19  1  0
 19 20  1  1
 20 21  1  0
 21 22  1  0
 22 23  1  0
 23 24  1  0
 24 25  1  0
 25 26  1  0
 26 27  1  0
 27 28  1  0
 28 29  2  0
 19 30  1  0
 13  4  1  0
 29 15  1  0
 12  7  1  0
 30 18  1  0
 28 21  1  0
M  END
>  <AAScore>  (1) 
2445.151624446496

>  <RootName>  (1) 
./4ZLY/04_DeltaGEst/trajectory_05/rank_00/lead_0264

$$$$
