confid_19
     RDKit          3D

 26 29  0  0  0  0  0  0  0  0999 V2000
   24.5500   26.3900   36.2500 N   0  0  0  0  0  0  0  0  0  0  0  0
   25.6000   26.1300   35.4000 C   0  0  0  0  0  0  0  0  0  0  0  0
   25.4300   25.4300   34.4200 O   0  0  0  0  0  0  0  0  0  0  0  0
   26.9800   26.6300   35.7100 C   0  0  0  0  0  0  0  0  0  0  0  0
   27.3200   26.8200   36.9800 N   0  0  0  0  0  0  0  0  0  0  0  0
   28.4700   27.4000   37.3100 N   0  0  0  0  0  0  0  0  0  0  0  0
   29.4000   27.6300   36.3700 C   0  0  0  0  0  0  0  0  0  0  0  0
   30.6600   28.0500   36.8000 C   0  0  0  0  0  0  0  0  0  0  0  0
   31.5700   28.3600   35.7800 C   0  0  0  0  0  0  0  0  0  0  0  0
   31.3700   28.1000   34.4300 C   0  0  0  0  0  0  0  0  0  0  0  0
   30.1200   27.5900   34.0500 C   0  0  0  0  0  0  0  0  0  0  0  0
   29.1500   27.3400   35.0300 C   0  0  0  0  0  0  0  0  0  0  0  0
   27.8800   26.8900   34.6600 C   0  0  0  0  0  0  0  0  0  0  0  0
   27.4800   26.6100   33.3700 N   0  0  0  0  0  0  0  0  0  0  0  0
   31.0534   28.1850   38.2217 C   0  0  0  0  0  0  0  0  0  0  0  0
   32.2684   27.7696   38.7523 C   0  0  0  0  0  0  0  0  0  0  0  0
   32.3634   27.9162   40.1471 C   0  0  0  0  0  0  0  0  0  0  0  0
   33.5865   27.4748   40.9021 C   0  0  0  0  0  0  0  0  0  0  0  0
   33.2277   26.5276   41.9691 N   0  0  0  0  0  0  0  0  0  0  0  0
   32.3957   26.9543   43.0648 C   0  0  0  0  0  0  0  0  0  0  0  0
   32.0014   26.1141   43.9320 O   0  0  0  0  0  0  0  0  0  0  0  0
   31.9758   28.3925   43.1839 C   0  0  0  0  0  0  0  0  0  0  0  0
   30.8770   28.7479   42.1699 C   0  0  0  0  0  0  0  0  0  0  0  0
   31.2128   28.4848   40.7194 C   0  0  0  0  0  0  0  0  0  0  0  0
   30.1007   28.7598   39.4831 S   0  0  0  0  0  0  0  0  0  0  0  0
   33.7549   25.1564   41.9528 C   0  0  0  0  0  0  0  0  0  0  0  0
  1  2  1  0
  2  3  2  0
  2  4  1  0
  4  5  2  0
  5  6  1  0
  6  7  2  0
  7  8  1  0
  8  9  2  0
  9 10  1  0
 10 11  2  0
 11 12  1  0
 12 13  2  0
 13 14  1  0
  8 15  1  0
 15 16  2  0
 16 17  1  0
 17 18  1  0
 18 19  1  0
 19 20  1  0
 20 21  2  0
 20 22  1  0
 22 23  1  0
 23 24  1  0
 24 25  1  0
 19 26  1  0
 13  4  1  0
 25 15  1  0
 12  7  1  0
 24 17  2  0
M  END
>  <AAScore>  (1) 
200.88408928446387

>  <RootName>  (1) 
./4ZLY/04_DeltaGEst/trajectory_01/rank_01/lead_0409

$$$$
