confid_5
     RDKit          3D

 27 30  0  0  0  0  0  0  0  0999 V2000
   24.2000   26.2400   35.6900 N   0  0  0  0  0  0  0  0  0  0  0  0
   24.8500   26.2800   34.4800 C   0  0  0  0  0  0  0  0  0  0  0  0
   24.3100   25.7400   33.5400 O   0  0  0  0  0  0  0  0  0  0  0  0
   26.1800   26.9700   34.4700 C   0  0  0  0  0  0  0  0  0  0  0  0
   26.6500   27.6000   35.5500 N   0  0  0  0  0  0  0  0  0  0  0  0
   27.7900   28.2700   35.6200 N   0  0  0  0  0  0  0  0  0  0  0  0
   28.5400   28.3000   34.5100 C   0  0  0  0  0  0  0  0  0  0  0  0
   29.7700   28.9400   34.5600 C   0  0  0  0  0  0  0  0  0  0  0  0
   30.7000   28.8900   33.5000 C   0  0  0  0  0  0  0  0  0  0  0  0
   30.3700   28.1400   32.3700 C   0  0  0  0  0  0  0  0  0  0  0  0
   29.1200   27.5200   32.2800 C   0  0  0  0  0  0  0  0  0  0  0  0
   28.2100   27.6100   33.3300 C   0  0  0  0  0  0  0  0  0  0  0  0
   26.9700   26.9700   33.3100 C   0  0  0  0  0  0  0  0  0  0  0  0
   26.5300   26.2400   32.2200 N   0  0  0  0  0  0  0  0  0  0  0  0
   30.1426   29.6559   35.7488 N   0  0  0  0  0  0  0  0  0  0  0  0
   30.7443   28.9246   36.8667 C   0  0  0  0  0  0  0  0  0  0  0  0
   30.3955   29.5898   38.2028 C   0  0  0  0  0  0  0  0  0  0  0  0
   30.7052   31.0735   38.1911 C   0  0  0  0  0  0  0  0  0  0  0  0
   31.0259   31.7619   39.3831 C   0  0  0  0  0  0  0  0  0  0  0  0
   31.1402   30.9380   40.9355 Cl  0  0  0  0  0  0  0  0  0  0  0  0
   31.2462   33.1433   39.3557 C   0  0  0  0  0  0  0  0  0  0  0  0
   31.1295   33.8542   38.1612 C   0  0  0  0  0  0  0  0  0  0  0  0
   30.7841   33.1915   36.9832 C   0  0  0  0  0  0  0  0  0  0  0  0
   30.5641   31.8043   36.9891 C   0  0  0  0  0  0  0  0  0  0  0  0
   30.1873   31.0926   35.7495 C   0  0  0  0  0  0  0  0  0  0  0  0
   29.8920   31.7384   34.7062 O   0  0  0  0  0  0  0  0  0  0  0  0
   31.3412   35.1934   38.1474 F   0  0  0  0  0  0  0  0  0  0  0  0
  1  2  1  0
  2  3  2  0
  2  4  1  0
  4  5  2  0
  5  6  1  0
  6  7  2  0
  7  8  1  0
  8  9  2  0
  9 10  1  0
 10 11  2  0
 11 12  1  0
 12 13  2  0
 13 14  1  0
  8 15  1  0
 15 16  1  0
 16 17  1  0
 17 18  1  0
 18 19  2  0
 19 20  1  0
 19 21  1  0
 21 22  2  0
 22 23  1  0
 23 24  2  0
 24 25  1  0
 25 26  2  0
 22 27  1  0
 13  4  1  0
 25 15  1  0
 12  7  1  0
 24 18  1  0
M  END
>  <AAScore>  (1) 
-8.036110411892402

>  <RootName>  (1) 
./4ZLY/04_DeltaGEst/trajectory_04/rank_01/lead_0495

$$$$
