confid_12
     RDKit          3D

 31 34  0  0  0  0  0  0  0  0999 V2000
   24.5500   26.3900   36.2500 N   0  0  0  0  0  0  0  0  0  0  0  0
   25.6000   26.1300   35.4000 C   0  0  0  0  0  0  0  0  0  0  0  0
   25.4300   25.4300   34.4200 O   0  0  0  0  0  0  0  0  0  0  0  0
   26.9800   26.6300   35.7100 C   0  0  0  0  0  0  0  0  0  0  0  0
   27.3200   26.8200   36.9800 N   0  0  0  0  0  0  0  0  0  0  0  0
   28.4700   27.4000   37.3100 N   0  0  0  0  0  0  0  0  0  0  0  0
   29.4000   27.6300   36.3700 C   0  0  0  0  0  0  0  0  0  0  0  0
   30.6600   28.0500   36.8000 C   0  0  0  0  0  0  0  0  0  0  0  0
   31.5700   28.3600   35.7800 C   0  0  0  0  0  0  0  0  0  0  0  0
   31.3700   28.1000   34.4300 C   0  0  0  0  0  0  0  0  0  0  0  0
   30.1200   27.5900   34.0500 C   0  0  0  0  0  0  0  0  0  0  0  0
   29.1500   27.3400   35.0300 C   0  0  0  0  0  0  0  0  0  0  0  0
   27.8800   26.8900   34.6600 C   0  0  0  0  0  0  0  0  0  0  0  0
   27.4800   26.6100   33.3700 N   0  0  0  0  0  0  0  0  0  0  0  0
   23.1458   26.3741   35.8123 C   0  0  0  0  0  0  0  0  0  0  0  0
   22.2548   27.0735   36.8690 C   0  0  0  0  0  0  0  0  0  0  0  0
   20.7712   26.9979   36.4875 C   0  0  0  0  0  0  0  0  0  0  0  0
   20.4029   25.5972   36.2382 N   0  0  0  0  0  0  0  0  0  0  0  0
   19.7081   24.8334   37.2570 C   0  0  0  0  0  0  0  0  0  0  0  0
   19.7194   25.2361   38.4530 O   0  0  0  0  0  0  0  0  0  0  0  0
   19.0050   23.5340   36.9234 C   0  0  0  0  0  0  0  0  0  0  0  0
   17.6360   23.3884   37.6401 C   0  0  0  0  0  0  0  0  0  0  0  0
   17.2178   21.9185   37.8933 C   0  0  0  0  0  0  0  0  0  0  0  0
   17.8281   20.9887   36.9251 N   0  0  0  0  0  0  0  0  0  0  0  0
   17.1157   19.8231   36.4335 C   0  0  0  0  0  0  0  0  0  0  0  0
   17.6168   19.1243   35.5090 O   0  0  0  0  0  0  0  0  0  0  0  0
   15.7752   19.4246   36.9714 C   0  0  0  0  0  0  0  0  0  0  0  0
   19.2739   21.0734   36.6340 C   0  0  0  0  0  0  0  0  0  0  0  0
   19.9050   22.3297   37.2384 C   0  0  0  0  0  0  0  0  0  0  0  0
   21.1694   24.9344   35.1748 C   0  0  0  0  0  0  0  0  0  0  0  0
   22.6517   24.9272   35.5614 C   0  0  0  0  0  0  0  0  0  0  0  0
  1  2  1  0
  2  3  2  0
  2  4  1  0
  4  5  2  0
  5  6  1  0
  6  7  2  0
  7  8  1  0
  8  9  2  0
  9 10  1  0
 10 11  2  0
 11 12  1  0
 12 13  2  0
 13 14  1  0
  1 15  1  0
 15 16  1  0
 16 17  1  0
 17 18  1  0
 18 19  1  0
 19 20  2  0
 19 21  1  0
 21 22  1  0
 22 23  1  0
 23 24  1  0
 24 25  1  0
 25 26  2  0
 25 27  1  0
 24 28  1  0
 28 29  1  0
 18 30  1  0
 30 31  1  0
 13  4  1  0
 31 15  1  0
 12  7  1  0
 29 21  1  0
M  END
>  <AAScore>  (1) 
2995.4569243467245

>  <RootName>  (1) 
./4ZLY/04_DeltaGEst/trajectory_01/rank_00/lead_0107

$$$$
