confid_15
     RDKit          3D

 29 32  0  0  0  0  0  0  0  0999 V2000
   24.6900   26.1200   35.5300 N   0  0  0  0  0  0  0  0  0  0  0  0
   25.6600   25.6700   34.6600 C   0  0  0  0  0  0  0  0  0  0  0  0
   25.2400   25.0100   33.7200 O   0  0  0  0  0  0  0  0  0  0  0  0
   27.0300   26.2200   34.8800 C   0  0  0  0  0  0  0  0  0  0  0  0
   27.3500   26.7300   36.0700 N   0  0  0  0  0  0  0  0  0  0  0  0
   28.5700   27.1800   36.3300 N   0  0  0  0  0  0  0  0  0  0  0  0
   29.5300   27.1100   35.3900 C   0  0  0  0  0  0  0  0  0  0  0  0
   30.8300   27.5700   35.6500 C   0  0  0  0  0  0  0  0  0  0  0  0
   31.8500   27.5400   34.6900 C   0  0  0  0  0  0  0  0  0  0  0  0
   31.5100   27.1200   33.4000 C   0  0  0  0  0  0  0  0  0  0  0  0
   30.2200   26.6300   33.1100 C   0  0  0  0  0  0  0  0  0  0  0  0
   29.2400   26.6600   34.1000 C   0  0  0  0  0  0  0  0  0  0  0  0
   27.9300   26.2600   33.8100 C   0  0  0  0  0  0  0  0  0  0  0  0
   27.5200   25.7100   32.6100 N   0  0  0  0  0  0  0  0  0  0  0  0
   23.4456   25.3857   35.7641 C   0  0  0  0  0  0  0  0  0  0  0  0
   23.7531   24.0144   36.2072 N   0  0  0  0  0  0  0  0  0  0  0  0
   24.2217   23.9950   37.6051 C   0  0  0  0  0  0  0  0  0  0  0  0
   24.8466   22.6290   37.9041 C   0  0  0  0  0  0  0  0  0  0  0  0
   24.2193   21.5846   37.0841 N   0  0  0  0  0  0  0  0  0  0  0  0
   22.8220   21.7357   36.6650 C   0  0  0  0  0  0  0  0  0  0  0  0
   22.5799   23.1308   36.0488 C   0  0  0  0  0  0  0  0  0  0  0  0
   24.9125   20.3504   36.8441 C   0  0  0  0  0  0  0  0  0  0  0  0
   24.4209   19.1563   37.3937 C   0  0  0  0  0  0  0  0  0  0  0  0
   25.0860   17.9499   37.1656 C   0  0  0  0  0  0  0  0  0  0  0  0
   26.2421   17.9262   36.3828 C   0  0  0  0  0  0  0  0  0  0  0  0
   26.7350   19.1085   35.8210 C   0  0  0  0  0  0  0  0  0  0  0  0
   26.0691   20.3317   36.0398 C   0  0  0  0  0  0  0  0  0  0  0  0
   26.5113   21.5356   35.4645 O   0  0  0  0  0  0  0  0  0  0  0  0
   27.6644   21.6645   34.6387 C   0  0  0  0  0  0  0  0  0  0  0  0
  1  2  1  0
  2  3  2  0
  2  4  1  0
  4  5  2  0
  5  6  1  0
  6  7  2  0
  7  8  1  0
  8  9  2  0
  9 10  1  0
 10 11  2  0
 11 12  1  0
 12 13  2  0
 13 14  1  0
  1 15  1  0
 15 16  1  0
 16 17  1  0
 17 18  1  0
 18 19  1  0
 19 20  1  0
 20 21  1  0
 19 22  1  0
 22 23  2  0
 23 24  1  0
 24 25  2  0
 25 26  1  0
 26 27  2  0
 27 28  1  0
 28 29  1  0
 13  4  1  0
 21 16  1  0
 27 22  1  0
 12  7  1  0
M  END
>  <AAScore>  (1) 
788.7816695713152

>  <RootName>  (1) 
./4ZLY/04_DeltaGEst/trajectory_02/rank_00/lead_0220

$$$$
