confid_7
     RDKit          3D

 26 29  0  0  0  0  0  0  0  0999 V2000
   24.6900   26.1200   35.5300 N   0  0  0  0  0  0  0  0  0  0  0  0
   25.6600   25.6700   34.6600 C   0  0  0  0  0  0  0  0  0  0  0  0
   25.2400   25.0100   33.7200 O   0  0  0  0  0  0  0  0  0  0  0  0
   27.0300   26.2200   34.8800 C   0  0  0  0  0  0  0  0  0  0  0  0
   27.3500   26.7300   36.0700 N   0  0  0  0  0  0  0  0  0  0  0  0
   28.5700   27.1800   36.3300 N   0  0  0  0  0  0  0  0  0  0  0  0
   29.5300   27.1100   35.3900 C   0  0  0  0  0  0  0  0  0  0  0  0
   30.8300   27.5700   35.6500 C   0  0  0  0  0  0  0  0  0  0  0  0
   31.8500   27.5400   34.6900 C   0  0  0  0  0  0  0  0  0  0  0  0
   31.5100   27.1200   33.4000 C   0  0  0  0  0  0  0  0  0  0  0  0
   30.2200   26.6300   33.1100 C   0  0  0  0  0  0  0  0  0  0  0  0
   29.2400   26.6600   34.1000 C   0  0  0  0  0  0  0  0  0  0  0  0
   27.9300   26.2600   33.8100 C   0  0  0  0  0  0  0  0  0  0  0  0
   27.5200   25.7100   32.6100 N   0  0  0  0  0  0  0  0  0  0  0  0
   31.1844   28.0729   37.0011 C   0  0  0  0  0  0  0  0  0  0  0  0
   30.9763   27.2743   38.1388 C   0  0  0  0  0  0  0  0  0  0  0  0
   31.3181   27.7517   39.4071 C   0  0  0  0  0  0  0  0  0  0  0  0
   31.1030   26.9583   40.5367 O   0  0  0  0  0  0  0  0  0  0  0  0
   31.3032   27.4789   41.8497 C   0  0  0  0  0  0  0  0  0  0  0  0
   32.4579   28.3868   41.8578 N   0  0  0  0  0  0  0  0  0  0  0  0
   32.2283   29.5138   40.9393 C   0  0  0  0  0  0  0  0  0  0  0  0
   31.8981   29.0213   39.5523 C   0  0  0  0  0  0  0  0  0  0  0  0
   32.0982   29.8270   38.4210 C   0  0  0  0  0  0  0  0  0  0  0  0
   32.6267   31.0709   38.5443 F   0  0  0  0  0  0  0  0  0  0  0  0
   31.7512   29.3502   37.1527 C   0  0  0  0  0  0  0  0  0  0  0  0
   32.5737   28.8927   43.1081 F   0  0  0  0  0  0  0  0  0  0  0  0
  1  2  1  0
  2  3  2  0
  2  4  1  0
  4  5  2  0
  5  6  1  0
  6  7  2  0
  7  8  1  0
  8  9  2  0
  9 10  1  0
 10 11  2  0
 11 12  1  0
 12 13  2  0
 13 14  1  0
  8 15  1  0
 15 16  2  0
 16 17  1  0
 17 18  1  0
 18 19  1  0
 19 20  1  0
 20 21  1  0
 21 22  1  0
 22 23  1  0
 23 24  1  0
 23 25  2  0
 20 26  1  0
 13  4  1  0
 25 15  1  0
 12  7  1  0
 22 17  2  0
M  END
>  <AAScore>  (1) 
9.757793402344548

>  <RootName>  (1) 
./4ZLY/04_DeltaGEst/trajectory_02/rank_01/lead_0180

$$$$
