confid_0
     RDKit          3D

 29 33  0  0  0  0  0  0  0  0999 V2000
   24.6900   26.1200   35.5300 N   0  0  0  0  0  0  0  0  0  0  0  0
   25.6600   25.6700   34.6600 C   0  0  0  0  0  0  0  0  0  0  0  0
   25.2400   25.0100   33.7200 O   0  0  0  0  0  0  0  0  0  0  0  0
   27.0300   26.2200   34.8800 C   0  0  0  0  0  0  0  0  0  0  0  0
   27.3500   26.7300   36.0700 N   0  0  0  0  0  0  0  0  0  0  0  0
   28.5700   27.1800   36.3300 N   0  0  0  0  0  0  0  0  0  0  0  0
   29.5300   27.1100   35.3900 C   0  0  0  0  0  0  0  0  0  0  0  0
   30.8300   27.5700   35.6500 C   0  0  0  0  0  0  0  0  0  0  0  0
   31.8500   27.5400   34.6900 C   0  0  0  0  0  0  0  0  0  0  0  0
   31.5100   27.1200   33.4000 C   0  0  0  0  0  0  0  0  0  0  0  0
   30.2200   26.6300   33.1100 C   0  0  0  0  0  0  0  0  0  0  0  0
   29.2400   26.6600   34.1000 C   0  0  0  0  0  0  0  0  0  0  0  0
   27.9300   26.2600   33.8100 C   0  0  0  0  0  0  0  0  0  0  0  0
   27.5200   25.7100   32.6100 N   0  0  0  0  0  0  0  0  0  0  0  0
   23.5272   25.3669   35.9380 C   0  0  0  0  0  0  0  0  0  0  0  0
   23.2958   24.2226   35.3459 N   0  0  0  0  0  0  0  0  0  0  0  0
   22.3133   23.1705   35.3547 C   0  0  0  0  0  0  0  0  0  0  0  0
   21.2628   23.0502   36.1584 C   0  0  0  0  0  0  0  0  0  0  0  0
   20.0698   22.1372   36.2195 C   0  0  0  0  0  0  0  0  0  0  0  0
   19.4502   22.8027   37.2694 O   0  0  0  0  0  0  0  0  0  0  0  0
   20.5428   23.6608   37.3201 C   0  0  2  0  0  0  0  0  0  0  0  0
   20.1561   25.1024   37.0350 C   0  0  0  0  0  0  0  0  0  0  0  0
   21.3402   25.9292   37.3533 C   0  0  0  0  0  0  0  0  0  0  0  0
   22.6684   25.9951   36.9736 C   0  0  0  0  0  0  0  0  0  0  0  0
   22.9706   27.0045   38.0055 N   0  0  0  0  0  0  0  0  0  0  0  0
   24.1127   27.6364   38.5894 C   0  0  0  0  0  0  0  0  0  0  0  0
   23.9332   28.7397   39.5796 C   0  0  0  0  0  0  0  0  0  0  0  0
   25.2697   27.2123   38.3325 O   0  0  0  0  0  0  0  0  0  0  0  0
   21.6084   26.9537   38.3022 C   0  0  0  0  0  0  0  0  0  0  0  0
  1  2  1  0
  2  3  2  0
  2  4  1  0
  4  5  2  0
  5  6  1  0
  6  7  2  0
  7  8  1  0
  8  9  2  0
  9 10  1  0
 10 11  2  0
 11 12  1  0
 12 13  2  0
 13 14  1  0
  1 15  1  0
 15 16  2  0
 16 17  1  0
 17 18  2  0
 18 19  1  0
 19 20  1  0
 20 21  1  0
 21 22  1  6
 22 23  1  0
 23 24  2  0
 24 25  1  0
 25 26  1  0
 26 27  1  0
 26 28  2  0
 25 29  1  0
 13  4  1  0
 24 15  1  0
 12  7  1  0
 21 18  1  0
 29 23  1  0
M  END
>  <AAScore>  (1) 
10068.404175949388

>  <RootName>  (1) 
./4ZLY/04_DeltaGEst/trajectory_02/rank_00/lead_0240

$$$$
