confid_12
     RDKit          3D

 30 33  0  0  0  0  0  0  0  0999 V2000
   24.2000   26.2400   35.6900 N   0  0  0  0  0  0  0  0  0  0  0  0
   24.8500   26.2800   34.4800 C   0  0  0  0  0  0  0  0  0  0  0  0
   24.3100   25.7400   33.5400 O   0  0  0  0  0  0  0  0  0  0  0  0
   26.1800   26.9700   34.4700 C   0  0  0  0  0  0  0  0  0  0  0  0
   26.6500   27.6000   35.5500 N   0  0  0  0  0  0  0  0  0  0  0  0
   27.7900   28.2700   35.6200 N   0  0  0  0  0  0  0  0  0  0  0  0
   28.5400   28.3000   34.5100 C   0  0  0  0  0  0  0  0  0  0  0  0
   29.7700   28.9400   34.5600 C   0  0  0  0  0  0  0  0  0  0  0  0
   30.7000   28.8900   33.5000 C   0  0  0  0  0  0  0  0  0  0  0  0
   30.3700   28.1400   32.3700 C   0  0  0  0  0  0  0  0  0  0  0  0
   29.1200   27.5200   32.2800 C   0  0  0  0  0  0  0  0  0  0  0  0
   28.2100   27.6100   33.3300 C   0  0  0  0  0  0  0  0  0  0  0  0
   26.9700   26.9700   33.3100 C   0  0  0  0  0  0  0  0  0  0  0  0
   26.5300   26.2400   32.2200 N   0  0  0  0  0  0  0  0  0  0  0  0
   30.1598   29.6295   35.7634 N   0  0  0  0  0  0  0  0  0  0  0  0
   30.8460   28.8229   36.7815 C   0  0  0  0  0  0  0  0  0  0  0  0
   31.8363   29.6681   37.5708 C   0  0  0  0  0  0  0  0  0  0  0  0
   31.1961   30.9424   38.1478 C   0  0  0  0  0  0  0  0  0  0  0  0
   29.9647   31.3906   37.4397 N   0  0  0  0  0  0  0  0  0  0  0  0
   29.9588   31.0947   35.9664 C   0  0  0  0  0  0  0  0  0  0  0  0
   28.6011   31.5839   35.3489 C   0  0  0  0  0  0  0  0  0  0  0  0
   28.5542   31.6966   33.8054 C   0  0  0  0  0  0  0  0  0  0  0  0
   29.8921   31.8208   33.1783 N   0  0  0  0  0  0  0  0  0  0  0  0
   30.7658   32.6548   34.0245 C   0  0  0  0  0  0  0  0  0  0  0  0
   31.1368   31.8904   35.3001 C   0  0  0  0  0  0  0  0  0  0  0  0
   29.8717   32.2081   31.7245 C   0  0  0  0  0  0  0  0  0  0  0  0
   31.2282   31.8386   31.0756 C   0  0  0  0  0  0  0  0  0  0  0  0
   28.7860   31.4161   30.9480 C   0  0  0  0  0  0  0  0  0  0  0  0
   29.6115   33.7216   31.5176 C   0  0  0  0  0  0  0  0  0  0  0  0
   28.7436   30.9534   38.1576 C   0  0  0  0  0  0  0  0  0  0  0  0
  1  2  1  0
  2  3  2  0
  2  4  1  0
  4  5  2  0
  5  6  1  0
  6  7  2  0
  7  8  1  0
  8  9  2  0
  9 10  1  0
 10 11  2  0
 11 12  1  0
 12 13  2  0
 13 14  1  0
  8 15  1  0
 15 16  1  0
 16 17  1  0
 17 18  1  0
 18 19  1  0
 19 20  1  0
 20 21  1  0
 21 22  1  0
 22 23  1  0
 23 24  1  0
 24 25  1  0
 23 26  1  0
 26 27  1  0
 26 28  1  0
 26 29  1  0
 19 30  1  0
 13  4  1  0
 20 15  1  0
 12  7  1  0
 25 20  1  0
M  END
>  <AAScore>  (1) 
705.4609730808078

>  <RootName>  (1) 
./4ZLY/04_DeltaGEst/trajectory_04/rank_01/lead_0177

$$$$
