confid_5
     RDKit          3D

 28 31  0  0  0  0  0  0  0  0999 V2000
   25.3300   26.2600   34.7600 N   0  0  0  0  0  0  0  0  0  0  0  0
   26.1200   25.9200   33.6900 C   0  0  0  0  0  0  0  0  0  0  0  0
   25.6300   25.1100   32.9400 O   0  0  0  0  0  0  0  0  0  0  0  0
   27.5200   26.3800   33.4600 C   0  0  0  0  0  0  0  0  0  0  0  0
   28.1600   26.6300   34.6100 N   0  0  0  0  0  0  0  0  0  0  0  0
   29.4800   26.8500   34.5700 N   0  0  0  0  0  0  0  0  0  0  0  0
   30.1900   26.7800   33.4400 C   0  0  0  0  0  0  0  0  0  0  0  0
   31.5600   27.0500   33.5000 C   0  0  0  0  0  0  0  0  0  0  0  0
   32.2700   27.2400   32.3100 C   0  0  0  0  0  0  0  0  0  0  0  0
   31.6100   27.2500   31.0800 C   0  0  0  0  0  0  0  0  0  0  0  0
   30.2700   26.8700   31.0600 C   0  0  0  0  0  0  0  0  0  0  0  0
   29.5100   26.6900   32.2300 C   0  0  0  0  0  0  0  0  0  0  0  0
   28.1400   26.4100   32.2000 C   0  0  0  0  0  0  0  0  0  0  0  0
   27.4300   26.1300   31.0500 N   0  0  0  0  0  0  0  0  0  0  0  0
   26.4828   27.1152   30.5117 C   0  0  0  0  0  0  0  0  0  0  0  0
   26.6452   27.2774   28.9826 C   0  0  0  0  0  0  0  0  0  0  0  0
   27.4765   26.2119   28.3804 N   0  0  0  0  0  0  0  0  0  0  0  0
   27.3628   26.2213   26.9088 C   0  0  0  0  0  0  0  0  0  0  0  0
   28.5646   25.5505   26.2822 C   0  0  0  0  0  0  0  0  0  0  0  0
   28.4971   24.8694   25.0368 C   0  0  0  0  0  0  0  0  0  0  0  0
   27.1802   24.7641   24.2782 C   0  0  0  0  0  0  0  0  0  0  0  0
   27.3022   24.3881   22.7997 C   0  0  0  0  0  0  0  0  0  0  0  0
   29.6696   24.2399   24.5684 C   0  0  0  0  0  0  0  0  0  0  0  0
   30.8668   24.3518   25.2741 C   0  0  0  0  0  0  0  0  0  0  0  0
   30.8968   25.0823   26.4563 C   0  0  0  0  0  0  0  0  0  0  0  0
   29.7615   25.6549   26.9273 N   0  0  0  0  0  0  0  0  0  0  0  0
   27.1173   24.8955   28.9397 C   0  0  0  0  0  0  0  0  0  0  0  0
   27.6087   24.8312   30.3860 C   0  0  0  0  0  0  0  0  0  0  0  0
  1  2  1  0
  2  3  2  0
  2  4  1  0
  4  5  2  0
  5  6  1  0
  6  7  2  0
  7  8  1  0
  8  9  2  0
  9 10  1  0
 10 11  2  0
 11 12  1  0
 12 13  2  0
 13 14  1  0
 14 15  1  0
 15 16  1  0
 16 17  1  0
 17 18  1  0
 18 19  1  0
 19 20  2  0
 20 21  1  0
 21 22  1  0
 20 23  1  0
 23 24  2  0
 24 25  1  0
 25 26  2  0
 17 27  1  0
 27 28  1  0
 13  4  1  0
 28 14  1  0
 12  7  1  0
 26 19  1  0
M  END
>  <AAScore>  (1) 
-2.773977764484799

>  <RootName>  (1) 
./4ZLY/04_DeltaGEst/trajectory_03/rank_01/lead_0079

$$$$
