confid_9
     RDKit          3D

 29 33  0  0  0  0  0  0  0  0999 V2000
   25.3300   26.2600   34.7600 N   0  0  0  0  0  0  0  0  0  0  0  0
   26.1200   25.9200   33.6900 C   0  0  0  0  0  0  0  0  0  0  0  0
   25.6300   25.1100   32.9400 O   0  0  0  0  0  0  0  0  0  0  0  0
   27.5200   26.3800   33.4600 C   0  0  0  0  0  0  0  0  0  0  0  0
   28.1600   26.6300   34.6100 N   0  0  0  0  0  0  0  0  0  0  0  0
   29.4800   26.8500   34.5700 N   0  0  0  0  0  0  0  0  0  0  0  0
   30.1900   26.7800   33.4400 C   0  0  0  0  0  0  0  0  0  0  0  0
   31.5600   27.0500   33.5000 C   0  0  0  0  0  0  0  0  0  0  0  0
   32.2700   27.2400   32.3100 C   0  0  0  0  0  0  0  0  0  0  0  0
   31.6100   27.2500   31.0800 C   0  0  0  0  0  0  0  0  0  0  0  0
   30.2700   26.8700   31.0600 C   0  0  0  0  0  0  0  0  0  0  0  0
   29.5100   26.6900   32.2300 C   0  0  0  0  0  0  0  0  0  0  0  0
   28.1400   26.4100   32.2000 C   0  0  0  0  0  0  0  0  0  0  0  0
   27.4300   26.1300   31.0500 N   0  0  0  0  0  0  0  0  0  0  0  0
   27.5843   24.8260   30.3905 C   0  0  0  0  0  0  0  0  0  0  0  0
   27.7257   24.9712   28.8580 C   0  0  0  0  0  0  0  0  0  0  0  0
   27.3405   26.3122   28.3622 N   0  0  0  0  0  0  0  0  0  0  0  0
   27.1392   26.2857   26.9004 C   0  0  0  0  0  0  0  0  0  0  0  0
   27.2806   27.6689   26.3339 C   0  0  0  0  0  0  0  0  0  0  0  0
   28.4946   28.3007   26.4007 N   0  0  0  0  0  0  0  0  0  0  0  0
   28.6809   29.5639   25.9198 C   0  0  0  0  0  0  0  0  0  0  0  0
   27.5976   30.2253   25.3477 C   0  0  0  0  0  0  0  0  0  0  0  0
   27.5274   31.5875   24.7601 C   0  0  0  0  0  0  0  0  0  0  0  0
   26.0450   31.6848   24.3197 C   0  0  0  0  0  0  0  0  0  0  0  0
   25.4470   30.4384   24.6791 O   0  0  0  0  0  0  0  0  0  0  0  0
   26.3814   29.6191   25.2730 C   0  0  0  0  0  0  0  0  0  0  0  0
   26.1772   28.3310   25.7580 C   0  0  0  0  0  0  0  0  0  0  0  0
   26.1393   26.8031   29.0621 C   0  0  0  0  0  0  0  0  0  0  0  0
   26.5204   27.1433   30.5018 C   0  0  0  0  0  0  0  0  0  0  0  0
  1  2  1  0
  2  3  2  0
  2  4  1  0
  4  5  2  0
  5  6  1  0
  6  7  2  0
  7  8  1  0
  8  9  2  0
  9 10  1  0
 10 11  2  0
 11 12  1  0
 12 13  2  0
 13 14  1  0
 14 15  1  0
 15 16  1  0
 16 17  1  0
 17 18  1  0
 18 19  1  0
 19 20  2  0
 20 21  1  0
 21 22  2  0
 22 23  1  0
 23 24  1  0
 24 25  1  0
 25 26  1  0
 26 27  2  0
 17 28  1  0
 28 29  1  0
 13  4  1  0
 29 14  1  0
 12  7  1  0
 27 19  1  0
 26 22  1  0
M  END
>  <AAScore>  (1) 
23.21032674708106

>  <RootName>  (1) 
./4ZLY/04_DeltaGEst/trajectory_03/rank_01/lead_0098

$$$$
