confid_13
     RDKit          3D

 26 29  0  0  0  0  0  0  0  0999 V2000
   24.2000   26.2400   35.6900 N   0  0  0  0  0  0  0  0  0  0  0  0
   24.8500   26.2800   34.4800 C   0  0  0  0  0  0  0  0  0  0  0  0
   24.3100   25.7400   33.5400 O   0  0  0  0  0  0  0  0  0  0  0  0
   26.1800   26.9700   34.4700 C   0  0  0  0  0  0  0  0  0  0  0  0
   26.6500   27.6000   35.5500 N   0  0  0  0  0  0  0  0  0  0  0  0
   27.7900   28.2700   35.6200 N   0  0  0  0  0  0  0  0  0  0  0  0
   28.5400   28.3000   34.5100 C   0  0  0  0  0  0  0  0  0  0  0  0
   29.7700   28.9400   34.5600 C   0  0  0  0  0  0  0  0  0  0  0  0
   30.7000   28.8900   33.5000 C   0  0  0  0  0  0  0  0  0  0  0  0
   30.3700   28.1400   32.3700 C   0  0  0  0  0  0  0  0  0  0  0  0
   29.1200   27.5200   32.2800 C   0  0  0  0  0  0  0  0  0  0  0  0
   28.2100   27.6100   33.3300 C   0  0  0  0  0  0  0  0  0  0  0  0
   26.9700   26.9700   33.3100 C   0  0  0  0  0  0  0  0  0  0  0  0
   26.5300   26.2400   32.2200 N   0  0  0  0  0  0  0  0  0  0  0  0
   30.1515   29.6851   35.7280 N   0  0  0  0  0  0  0  0  0  0  0  0
   29.5932   30.0683   37.0414 C   0  0  0  0  0  0  0  0  0  0  0  0
   30.7750   30.8705   37.4926 C   0  0  0  0  0  0  0  0  0  0  0  0
   31.3240   30.4732   36.1565 C   0  0  0  0  0  0  0  0  0  0  0  0
   30.4850   32.3725   37.6561 C   0  0  0  0  0  0  0  0  0  0  0  0
   31.7570   33.1312   37.9312 C   0  0  0  0  0  0  0  0  0  0  0  0
   32.3731   33.9604   36.9672 C   0  0  0  0  0  0  0  0  0  0  0  0
   31.6951   34.2213   35.3633 Cl  0  0  0  0  0  0  0  0  0  0  0  0
   33.5662   34.6118   37.2966 C   0  0  0  0  0  0  0  0  0  0  0  0
   34.1345   34.4393   38.5583 C   0  0  0  0  0  0  0  0  0  0  0  0
   33.5005   33.6123   39.4841 C   0  0  0  0  0  0  0  0  0  0  0  0
   32.3422   32.9838   39.1533 N   0  0  0  0  0  0  0  0  0  0  0  0
  1  2  1  0
  2  3  2  0
  2  4  1  0
  4  5  2  0
  5  6  1  0
  6  7  2  0
  7  8  1  0
  8  9  2  0
  9 10  1  0
 10 11  2  0
 11 12  1  0
 12 13  2  0
 13 14  1  0
  8 15  1  0
 15 16  1  0
 16 17  1  0
 17 18  1  0
 17 19  1  0
 19 20  1  0
 20 21  2  0
 21 22  1  0
 21 23  1  0
 23 24  2  0
 24 25  1  0
 25 26  2  0
 13  4  1  0
 18 15  1  0
 26 20  1  0
 12  7  1  0
M  END
>  <AAScore>  (1) 
-8.160452871421207

>  <RootName>  (1) 
./4ZLY/04_DeltaGEst/trajectory_04/rank_01/lead_0202

$$$$
