confid_15
     RDKit          3D

 30 34  0  0  0  0  0  0  0  0999 V2000
   25.3300   26.2600   34.7600 N   0  0  0  0  0  0  0  0  0  0  0  0
   26.1200   25.9200   33.6900 C   0  0  0  0  0  0  0  0  0  0  0  0
   25.6300   25.1100   32.9400 O   0  0  0  0  0  0  0  0  0  0  0  0
   27.5200   26.3800   33.4600 C   0  0  0  0  0  0  0  0  0  0  0  0
   28.1600   26.6300   34.6100 N   0  0  0  0  0  0  0  0  0  0  0  0
   29.4800   26.8500   34.5700 N   0  0  0  0  0  0  0  0  0  0  0  0
   30.1900   26.7800   33.4400 C   0  0  0  0  0  0  0  0  0  0  0  0
   31.5600   27.0500   33.5000 C   0  0  0  0  0  0  0  0  0  0  0  0
   32.2700   27.2400   32.3100 C   0  0  0  0  0  0  0  0  0  0  0  0
   31.6100   27.2500   31.0800 C   0  0  0  0  0  0  0  0  0  0  0  0
   30.2700   26.8700   31.0600 C   0  0  0  0  0  0  0  0  0  0  0  0
   29.5100   26.6900   32.2300 C   0  0  0  0  0  0  0  0  0  0  0  0
   28.1400   26.4100   32.2000 C   0  0  0  0  0  0  0  0  0  0  0  0
   27.4300   26.1300   31.0500 N   0  0  0  0  0  0  0  0  0  0  0  0
   26.4221   27.0710   30.5546 C   0  0  0  0  0  0  0  0  0  0  0  0
   26.5084   27.1623   29.0308 C   0  0  0  0  0  0  0  0  0  0  0  0
   26.4265   25.8143   28.4315 N   0  0  0  0  0  0  0  0  0  0  0  0
   26.4030   25.9220   26.9585 C   0  0  0  0  0  0  0  0  0  0  0  0
   25.9517   24.6334   26.3424 C   0  0  0  0  0  0  0  0  0  0  0  0
   24.7524   24.0628   26.5888 N   0  0  0  0  0  0  0  0  0  0  0  0
   24.7173   22.9367   25.8961 N   0  0  0  0  0  0  0  0  0  0  0  0
   23.5807   22.0240   25.8274 C   0  0  0  0  0  0  0  0  0  0  0  0
   24.0192   20.6825   25.2129 C   0  0  0  0  0  0  0  0  0  0  0  0
   24.8507   20.9157   24.0087 N   0  0  0  0  0  0  0  0  0  0  0  0
   25.1234   19.6421   23.3271 C   0  0  0  0  0  0  0  0  0  0  0  0
   26.1254   21.5814   24.3609 C   0  0  0  0  0  0  0  0  0  0  0  0
   25.8491   22.7944   25.1910 C   0  0  0  0  0  0  0  0  0  0  0  0
   26.6878   23.8524   25.4623 C   0  0  0  0  0  0  0  0  0  0  0  0
   27.5745   24.9930   28.8770 C   0  0  0  0  0  0  0  0  0  0  0  0
   27.5545   24.8221   30.3991 C   0  0  0  0  0  0  0  0  0  0  0  0
  1  2  1  0
  2  3  2  0
  2  4  1  0
  4  5  2  0
  5  6  1  0
  6  7  2  0
  7  8  1  0
  8  9  2  0
  9 10  1  0
 10 11  2  0
 11 12  1  0
 12 13  2  0
 13 14  1  0
 14 15  1  0
 15 16  1  0
 16 17  1  0
 17 18  1  0
 18 19  1  0
 19 20  2  0
 20 21  1  0
 21 22  1  0
 22 23  1  0
 23 24  1  0
 24 25  1  0
 24 26  1  0
 26 27  1  0
 27 28  2  0
 17 29  1  0
 29 30  1  0
 13  4  1  0
 30 14  1  0
 12  7  1  0
 28 19  1  0
 27 21  1  0
M  END
>  <AAScore>  (1) 
15.670249878018668

>  <RootName>  (1) 
./4ZLY/04_DeltaGEst/trajectory_03/rank_01/lead_0397

$$$$
