confid_2
     RDKit          3D

 26 28  0  0  0  0  0  0  0  0999 V2000
   24.5700   26.8800   35.5900 N   0  0  0  0  0  0  0  0  0  0  0  0
   25.5000   26.4000   34.6900 C   0  0  0  0  0  0  0  0  0  0  0  0
   25.1700   25.5200   33.9100 O   0  0  0  0  0  0  0  0  0  0  0  0
   26.8400   27.0200   34.7400 C   0  0  0  0  0  0  0  0  0  0  0  0
   27.3800   27.2800   35.9400 N   0  0  0  0  0  0  0  0  0  0  0  0
   28.6200   27.7400   36.0300 N   0  0  0  0  0  0  0  0  0  0  0  0
   29.3800   28.0000   34.9600 C   0  0  0  0  0  0  0  0  0  0  0  0
   30.6700   28.5000   35.1300 C   0  0  0  0  0  0  0  0  0  0  0  0
   31.5400   28.6100   34.0300 C   0  0  0  0  0  0  0  0  0  0  0  0
   31.0900   28.2200   32.7700 C   0  0  0  0  0  0  0  0  0  0  0  0
   29.8000   27.7000   32.6000 C   0  0  0  0  0  0  0  0  0  0  0  0
   28.9600   27.5500   33.7100 C   0  0  0  0  0  0  0  0  0  0  0  0
   27.6600   27.0300   33.5900 C   0  0  0  0  0  0  0  0  0  0  0  0
   27.1600   26.7400   32.3400 N   0  0  0  0  0  0  0  0  0  0  0  0
   33.1793   29.2299   34.3174 S   0  0  0  0  0  6  0  0  0  0  0  0
   33.9013   28.2052   35.1464 O   0  0  0  0  0  0  0  0  0  0  0  0
   33.0473   30.4679   35.1596 O   0  0  0  0  0  0  0  0  0  0  0  0
   34.2497   29.6626   32.8972 C   0  0  2  0  0  0  0  0  0  0  0  0
   33.7327   30.7805   31.9489 C   0  0  0  0  0  0  0  0  0  0  0  0
   34.7655   31.9332   31.8566 C   0  0  0  0  0  0  0  0  0  0  0  0
   32.3782   31.4364   32.3191 C   0  0  0  0  0  0  0  0  0  0  0  0
   33.6173   30.0512   30.5916 C   0  0  0  0  0  0  0  0  0  0  0  0
   33.8763   28.6722   30.7524 O   0  0  0  0  0  0  0  0  0  0  0  0
   34.6421   28.5070   31.9229 C   0  0  0  0  0  0  0  0  0  0  0  0
   34.4164   27.0788   32.4645 C   0  0  0  0  0  0  0  0  0  0  0  0
   36.1398   28.5910   31.5337 C   0  0  0  0  0  0  0  0  0  0  0  0
  1  2  1  0
  2  3  2  0
  2  4  1  0
  4  5  2  0
  5  6  1  0
  6  7  2  0
  7  8  1  0
  8  9  2  0
  9 10  1  0
 10 11  2  0
 11 12  1  0
 12 13  2  0
 13 14  1  0
  9 15  1  0
 15 16  2  0
 15 17  2  0
 18 15  1  1
 18 19  1  0
 19 20  1  0
 19 21  1  0
 19 22  1  0
 22 23  1  0
 23 24  1  0
 24 25  1  0
 24 26  1  0
 13  4  1  0
 24 18  1  0
 12  7  1  0
M  END
>  <AAScore>  (1) 
20.713660018880223

>  <RootName>  (1) 
./4ZLY/04_DeltaGEst/trajectory_05/rank_01/lead_0261

$$$$
