confid_6
     RDKit          3D

 27 31  0  0  0  0  0  0  0  0999 V2000
   24.2000   26.2400   35.6900 N   0  0  0  0  0  0  0  0  0  0  0  0
   24.8500   26.2800   34.4800 C   0  0  0  0  0  0  0  0  0  0  0  0
   24.3100   25.7400   33.5400 O   0  0  0  0  0  0  0  0  0  0  0  0
   26.1800   26.9700   34.4700 C   0  0  0  0  0  0  0  0  0  0  0  0
   26.6500   27.6000   35.5500 N   0  0  0  0  0  0  0  0  0  0  0  0
   27.7900   28.2700   35.6200 N   0  0  0  0  0  0  0  0  0  0  0  0
   28.5400   28.3000   34.5100 C   0  0  0  0  0  0  0  0  0  0  0  0
   29.7700   28.9400   34.5600 C   0  0  0  0  0  0  0  0  0  0  0  0
   30.7000   28.8900   33.5000 C   0  0  0  0  0  0  0  0  0  0  0  0
   30.3700   28.1400   32.3700 C   0  0  0  0  0  0  0  0  0  0  0  0
   29.1200   27.5200   32.2800 C   0  0  0  0  0  0  0  0  0  0  0  0
   28.2100   27.6100   33.3300 C   0  0  0  0  0  0  0  0  0  0  0  0
   26.9700   26.9700   33.3100 C   0  0  0  0  0  0  0  0  0  0  0  0
   26.5300   26.2400   32.2200 N   0  0  0  0  0  0  0  0  0  0  0  0
   30.1313   29.6757   35.7419 N   0  0  0  0  0  0  0  0  0  0  0  0
   31.3521   29.3151   36.4798 C   0  0  0  0  0  0  0  0  0  0  0  0
   31.1061   29.3904   37.9939 C   0  0  0  0  0  0  0  0  0  0  0  0
   30.3819   30.6559   38.3554 C   0  0  0  0  0  0  0  0  0  0  0  0
   29.6076   31.3495   37.4311 C   0  0  0  0  0  0  0  0  0  0  0  0
   28.8958   32.6857   38.1742 S   0  0  0  0  0  0  0  0  0  0  0  0
   29.5594   32.3728   39.6894 C   0  0  0  0  0  0  0  0  0  0  0  0
   29.3245   33.1252   40.9566 C   0  0  0  0  0  0  0  0  0  0  0  0
   30.3404   32.6555   42.0145 C   0  0  0  0  0  0  0  0  0  0  0  0
   30.4179   31.2365   42.0513 O   0  0  0  0  0  0  0  0  0  0  0  0
   31.0332   30.7357   40.8709 C   0  0  0  0  0  0  0  0  0  0  0  0
   30.3156   31.2164   39.6393 C   0  0  0  0  0  0  0  0  0  0  0  0
   29.5013   30.9822   35.9849 C   0  0  0  0  0  0  0  0  0  0  0  0
  1  2  1  0
  2  3  2  0
  2  4  1  0
  4  5  2  0
  5  6  1  0
  6  7  2  0
  7  8  1  0
  8  9  2  0
  9 10  1  0
 10 11  2  0
 11 12  1  0
 12 13  2  0
 13 14  1  0
  8 15  1  0
 15 16  1  0
 16 17  1  0
 17 18  1  0
 18 19  2  0
 19 20  1  0
 20 21  1  0
 21 22  1  0
 22 23  1  0
 23 24  1  0
 24 25  1  0
 25 26  1  0
 19 27  1  0
 13  4  1  0
 27 15  1  0
 12  7  1  0
 26 18  1  0
 26 21  2  0
M  END
>  <AAScore>  (1) 
-9.818921441122823

>  <RootName>  (1) 
./4ZLY/04_DeltaGEst/trajectory_04/rank_01/lead_0364

$$$$
