confid_15
     RDKit          3D

 27 30  0  0  0  0  0  0  0  0999 V2000
   24.5700   26.8800   35.5900 N   0  0  0  0  0  0  0  0  0  0  0  0
   25.5000   26.4000   34.6900 C   0  0  0  0  0  0  0  0  0  0  0  0
   25.1700   25.5200   33.9100 O   0  0  0  0  0  0  0  0  0  0  0  0
   26.8400   27.0200   34.7400 C   0  0  0  0  0  0  0  0  0  0  0  0
   27.3800   27.2800   35.9400 N   0  0  0  0  0  0  0  0  0  0  0  0
   28.6200   27.7400   36.0300 N   0  0  0  0  0  0  0  0  0  0  0  0
   29.3800   28.0000   34.9600 C   0  0  0  0  0  0  0  0  0  0  0  0
   30.6700   28.5000   35.1300 C   0  0  0  0  0  0  0  0  0  0  0  0
   31.5400   28.6100   34.0300 C   0  0  0  0  0  0  0  0  0  0  0  0
   31.0900   28.2200   32.7700 C   0  0  0  0  0  0  0  0  0  0  0  0
   29.8000   27.7000   32.6000 C   0  0  0  0  0  0  0  0  0  0  0  0
   28.9600   27.5500   33.7100 C   0  0  0  0  0  0  0  0  0  0  0  0
   27.6600   27.0300   33.5900 C   0  0  0  0  0  0  0  0  0  0  0  0
   27.1600   26.7400   32.3400 N   0  0  0  0  0  0  0  0  0  0  0  0
   23.4343   26.1233   36.0252 C   0  0  0  0  0  0  0  0  0  0  0  0
   22.2647   26.6683   36.1278 N   0  0  0  0  0  0  0  0  0  0  0  0
   21.4081   25.7315   36.7676 C   0  0  0  0  0  0  0  0  0  0  0  0
   22.0796   24.6424   37.1058 C   0  0  0  0  0  0  0  0  0  0  0  0
   21.6427   23.3104   36.7222 C   0  0  0  0  0  0  0  0  0  0  0  0
   20.4836   22.8461   36.8901 O   0  0  0  0  0  0  0  0  0  0  0  0
   22.6711   22.6453   36.0035 N   0  0  0  0  0  0  0  0  0  0  0  0
   22.5260   21.4287   35.2046 C   0  0  0  0  0  0  0  0  0  0  0  0
   22.2926   21.7564   33.7240 C   0  0  0  0  0  0  0  0  0  0  0  0
   20.9767   22.4957   33.4902 C   0  0  0  0  0  0  0  0  0  0  0  0
   23.7688   23.5590   35.9571 C   0  0  0  0  0  0  0  0  0  0  0  0
   24.8695   23.2743   35.4161 O   0  0  0  0  0  0  0  0  0  0  0  0
   23.5179   24.8115   36.7512 C   0  0  1  0  0  0  0  0  0  0  0  0
  1  2  1  0
  2  3  2  0
  2  4  1  0
  4  5  2  0
  5  6  1  0
  6  7  2  0
  7  8  1  0
  8  9  2  0
  9 10  1  0
 10 11  2  0
 11 12  1  0
 12 13  2  0
 13 14  1  0
  1 15  1  0
 15 16  2  0
 16 17  1  0
 17 18  2  0
 18 19  1  0
 19 20  2  0
 19 21  1  0
 21 22  1  0
 22 23  1  0
 23 24  1  0
 21 25  1  0
 25 26  2  0
 27 25  1  6
 13  4  1  0
 27 15  1  0
 12  7  1  0
 27 18  1  0
M  END
>  <AAScore>  (1) 
552.8232660595755

>  <RootName>  (1) 
./4ZLY/04_DeltaGEst/trajectory_05/rank_00/lead_0200

$$$$
