confid_8
     RDKit          3D

 31 35  0  0  0  0  0  0  0  0999 V2000
   24.5500   26.3900   36.2500 N   0  0  0  0  0  0  0  0  0  0  0  0
   25.6000   26.1300   35.4000 C   0  0  0  0  0  0  0  0  0  0  0  0
   25.4300   25.4300   34.4200 O   0  0  0  0  0  0  0  0  0  0  0  0
   26.9800   26.6300   35.7100 C   0  0  0  0  0  0  0  0  0  0  0  0
   27.3200   26.8200   36.9800 N   0  0  0  0  0  0  0  0  0  0  0  0
   28.4700   27.4000   37.3100 N   0  0  0  0  0  0  0  0  0  0  0  0
   29.4000   27.6300   36.3700 C   0  0  0  0  0  0  0  0  0  0  0  0
   30.6600   28.0500   36.8000 C   0  0  0  0  0  0  0  0  0  0  0  0
   31.5700   28.3600   35.7800 C   0  0  0  0  0  0  0  0  0  0  0  0
   31.3700   28.1000   34.4300 C   0  0  0  0  0  0  0  0  0  0  0  0
   30.1200   27.5900   34.0500 C   0  0  0  0  0  0  0  0  0  0  0  0
   29.1500   27.3400   35.0300 C   0  0  0  0  0  0  0  0  0  0  0  0
   27.8800   26.8900   34.6600 C   0  0  0  0  0  0  0  0  0  0  0  0
   27.4800   26.6100   33.3700 N   0  0  0  0  0  0  0  0  0  0  0  0
   23.2996   25.6807   36.2335 C   0  0  0  0  0  0  0  0  0  0  0  0
   22.2553   26.2519   36.7772 N   0  0  0  0  0  0  0  0  0  0  0  0
   20.9587   25.6498   36.8776 C   0  0  0  0  0  0  0  0  0  0  0  0
   20.3499   25.2012   35.7852 C   0  0  0  0  0  0  0  0  0  0  0  0
   19.1965   24.3290   35.3910 C   0  0  0  0  0  0  0  0  0  0  0  0
   19.5016   24.3246   34.0281 O   0  0  0  0  0  0  0  0  0  0  0  0
   20.5534   25.1981   34.2937 C   0  0  2  0  0  0  0  0  0  0  0  0
   21.9149   24.6602   33.8078 C   0  0  0  0  0  0  0  0  0  0  0  0
   22.6201   23.7518   34.7927 C   0  0  0  0  0  0  0  0  0  0  0  0
   23.2773   24.2314   35.8739 C   0  0  0  0  0  0  0  0  0  0  0  0
   24.0352   23.2725   36.7567 C   0  0  0  0  0  0  0  0  0  0  0  0
   23.2883   22.0115   36.9314 N   0  0  0  0  0  0  0  0  0  0  0  0
   22.4509   21.4871   35.8333 C   0  0  0  0  0  0  0  0  0  0  0  0
   22.6573   22.2690   34.5284 C   0  0  0  0  0  0  0  0  0  0  0  0
   23.4775   21.2304   38.1347 C   0  0  0  0  0  0  0  0  0  0  0  0
   24.3530   21.5719   38.9760 O   0  0  0  0  0  0  0  0  0  0  0  0
   22.6725   19.9916   38.4061 C   0  0  0  0  0  0  0  0  0  0  0  0
  1  2  1  0
  2  3  2  0
  2  4  1  0
  4  5  2  0
  5  6  1  0
  6  7  2  0
  7  8  1  0
  8  9  2  0
  9 10  1  0
 10 11  2  0
 11 12  1  0
 12 13  2  0
 13 14  1  0
  1 15  1  0
 15 16  2  0
 16 17  1  0
 17 18  2  0
 18 19  1  0
 19 20  1  0
 20 21  1  0
 21 22  1  1
 22 23  1  0
 23 24  2  0
 24 25  1  0
 25 26  1  0
 26 27  1  0
 27 28  1  0
 26 29  1  0
 29 30  2  0
 29 31  1  0
 13  4  1  0
 24 15  1  0
 12  7  1  0
 21 18  1  0
 28 23  1  0
M  END
>  <AAScore>  (1) 
4534.4063848977285

>  <RootName>  (1) 
./4ZLY/04_DeltaGEst/trajectory_01/rank_00/lead_0422

$$$$
