confid_13
     RDKit          3D

 30 33  0  0  0  0  0  0  0  0999 V2000
   24.6900   26.1200   35.5300 N   0  0  0  0  0  0  0  0  0  0  0  0
   25.6600   25.6700   34.6600 C   0  0  0  0  0  0  0  0  0  0  0  0
   25.2400   25.0100   33.7200 O   0  0  0  0  0  0  0  0  0  0  0  0
   27.0300   26.2200   34.8800 C   0  0  0  0  0  0  0  0  0  0  0  0
   27.3500   26.7300   36.0700 N   0  0  0  0  0  0  0  0  0  0  0  0
   28.5700   27.1800   36.3300 N   0  0  0  0  0  0  0  0  0  0  0  0
   29.5300   27.1100   35.3900 C   0  0  0  0  0  0  0  0  0  0  0  0
   30.8300   27.5700   35.6500 C   0  0  0  0  0  0  0  0  0  0  0  0
   31.8500   27.5400   34.6900 C   0  0  0  0  0  0  0  0  0  0  0  0
   31.5100   27.1200   33.4000 C   0  0  0  0  0  0  0  0  0  0  0  0
   30.2200   26.6300   33.1100 C   0  0  0  0  0  0  0  0  0  0  0  0
   29.2400   26.6600   34.1000 C   0  0  0  0  0  0  0  0  0  0  0  0
   27.9300   26.2600   33.8100 C   0  0  0  0  0  0  0  0  0  0  0  0
   27.5200   25.7100   32.6100 N   0  0  0  0  0  0  0  0  0  0  0  0
   31.1501   28.0890   36.9511 N   0  0  0  0  0  0  0  0  0  0  0  0
   31.2222   27.1974   38.1145 C   0  0  0  0  0  0  0  0  0  0  0  0
   30.5442   27.8137   39.3469 C   0  0  0  0  0  0  0  0  0  0  0  0
   29.2569   28.4501   38.9623 N   0  0  0  0  0  0  0  0  0  0  0  0
   29.2581   29.9300   39.0926 C   0  0  0  0  0  0  0  0  0  0  0  0
   29.2423   30.5843   37.7261 C   0  0  0  0  0  0  0  0  0  0  0  0
   30.3220   30.4410   36.8210 C   0  0  0  0  0  0  0  0  0  0  0  0
   30.3117   31.1327   35.6018 C   0  0  0  0  0  0  0  0  0  0  0  0
   29.2361   31.9580   35.2689 C   0  0  0  0  0  0  0  0  0  0  0  0
   29.2310   32.6158   34.0831 F   0  0  0  0  0  0  0  0  0  0  0  0
   28.1612   32.0949   36.1499 C   0  0  0  0  0  0  0  0  0  0  0  0
   27.1144   32.8931   35.8243 F   0  0  0  0  0  0  0  0  0  0  0  0
   28.1646   31.4159   37.3715 C   0  0  0  0  0  0  0  0  0  0  0  0
   31.4078   29.4906   37.0857 C   0  0  0  0  0  0  0  0  0  0  0  0
   32.5360   29.8993   37.4678 O   0  0  0  0  0  0  0  0  0  0  0  0
   28.1189   27.8407   39.6681 C   0  0  0  0  0  0  0  0  0  0  0  0
  1  2  1  0
  2  3  2  0
  2  4  1  0
  4  5  2  0
  5  6  1  0
  6  7  2  0
  7  8  1  0
  8  9  2  0
  9 10  1  0
 10 11  2  0
 11 12  1  0
 12 13  2  0
 13 14  1  0
  8 15  1  0
 15 16  1  0
 16 17  1  0
 17 18  1  0
 18 19  1  0
 19 20  1  0
 20 21  2  0
 21 22  1  0
 22 23  2  0
 23 24  1  0
 23 25  1  0
 25 26  1  0
 25 27  2  0
 21 28  1  0
 28 29  2  0
 18 30  1  0
 13  4  1  0
 28 15  1  0
 12  7  1  0
 27 20  1  0
M  END
>  <AAScore>  (1) 
-5.837794017301263

>  <RootName>  (1) 
./4ZLY/04_DeltaGEst/trajectory_02/rank_01/lead_0199

$$$$
