confid_16
     RDKit          3D

 27 30  0  0  0  0  0  0  0  0999 V2000
   24.2000   26.2400   35.6900 N   0  0  0  0  0  0  0  0  0  0  0  0
   24.8500   26.2800   34.4800 C   0  0  0  0  0  0  0  0  0  0  0  0
   24.3100   25.7400   33.5400 O   0  0  0  0  0  0  0  0  0  0  0  0
   26.1800   26.9700   34.4700 C   0  0  0  0  0  0  0  0  0  0  0  0
   26.6500   27.6000   35.5500 N   0  0  0  0  0  0  0  0  0  0  0  0
   27.7900   28.2700   35.6200 N   0  0  0  0  0  0  0  0  0  0  0  0
   28.5400   28.3000   34.5100 C   0  0  0  0  0  0  0  0  0  0  0  0
   29.7700   28.9400   34.5600 C   0  0  0  0  0  0  0  0  0  0  0  0
   30.7000   28.8900   33.5000 C   0  0  0  0  0  0  0  0  0  0  0  0
   30.3700   28.1400   32.3700 C   0  0  0  0  0  0  0  0  0  0  0  0
   29.1200   27.5200   32.2800 C   0  0  0  0  0  0  0  0  0  0  0  0
   28.2100   27.6100   33.3300 C   0  0  0  0  0  0  0  0  0  0  0  0
   26.9700   26.9700   33.3100 C   0  0  0  0  0  0  0  0  0  0  0  0
   26.5300   26.2400   32.2200 N   0  0  0  0  0  0  0  0  0  0  0  0
   30.1355   29.6736   35.7412 N   0  0  0  0  0  0  0  0  0  0  0  0
   31.2391   29.1862   36.5804 C   0  0  0  0  0  0  0  0  0  0  0  0
   31.4325   30.0817   37.8063 C   0  0  0  0  0  0  0  0  0  0  0  0
   30.1242   30.3829   38.4039 N   0  0  0  0  0  0  0  0  0  0  0  0
   29.8063   29.8930   39.7244 C   0  0  0  0  0  0  0  0  0  0  0  0
   28.9356   30.5941   40.5833 C   0  0  0  0  0  0  0  0  0  0  0  0
   28.3969   31.7865   40.2288 F   0  0  0  0  0  0  0  0  0  0  0  0
   28.6478   30.0691   41.8456 C   0  0  0  0  0  0  0  0  0  0  0  0
   29.2212   28.8633   42.2478 C   0  0  0  0  0  0  0  0  0  0  0  0
   30.0840   28.1964   41.3787 C   0  0  0  0  0  0  0  0  0  0  0  0
   30.3531   28.7193   40.1534 N   0  0  0  0  0  0  0  0  0  0  0  0
   29.0675   30.9593   37.5526 C   0  0  0  0  0  0  0  0  0  0  0  0
   29.4522   30.9323   36.0657 C   0  0  0  0  0  0  0  0  0  0  0  0
  1  2  1  0
  2  3  2  0
  2  4  1  0
  4  5  2  0
  5  6  1  0
  6  7  2  0
  7  8  1  0
  8  9  2  0
  9 10  1  0
 10 11  2  0
 11 12  1  0
 12 13  2  0
 13 14  1  0
  8 15  1  0
 15 16  1  0
 16 17  1  0
 17 18  1  0
 18 19  1  0
 19 20  2  0
 20 21  1  0
 20 22  1  0
 22 23  2  0
 23 24  1  0
 24 25  2  0
 18 26  1  0
 26 27  1  0
 13  4  1  0
 27 15  1  0
 12  7  1  0
 25 19  1  0
M  END
>  <AAScore>  (1) 
-8.567210564292795

>  <RootName>  (1) 
./4ZLY/04_DeltaGEst/trajectory_04/rank_01/lead_0441

$$$$
