confid_0
     RDKit          3D

 28 31  0  0  0  0  0  0  0  0999 V2000
   25.3300   26.2600   34.7600 N   0  0  0  0  0  0  0  0  0  0  0  0
   26.1200   25.9200   33.6900 C   0  0  0  0  0  0  0  0  0  0  0  0
   25.6300   25.1100   32.9400 O   0  0  0  0  0  0  0  0  0  0  0  0
   27.5200   26.3800   33.4600 C   0  0  0  0  0  0  0  0  0  0  0  0
   28.1600   26.6300   34.6100 N   0  0  0  0  0  0  0  0  0  0  0  0
   29.4800   26.8500   34.5700 N   0  0  0  0  0  0  0  0  0  0  0  0
   30.1900   26.7800   33.4400 C   0  0  0  0  0  0  0  0  0  0  0  0
   31.5600   27.0500   33.5000 C   0  0  0  0  0  0  0  0  0  0  0  0
   32.2700   27.2400   32.3100 C   0  0  0  0  0  0  0  0  0  0  0  0
   31.6100   27.2500   31.0800 C   0  0  0  0  0  0  0  0  0  0  0  0
   30.2700   26.8700   31.0600 C   0  0  0  0  0  0  0  0  0  0  0  0
   29.5100   26.6900   32.2300 C   0  0  0  0  0  0  0  0  0  0  0  0
   28.1400   26.4100   32.2000 C   0  0  0  0  0  0  0  0  0  0  0  0
   27.4300   26.1300   31.0500 N   0  0  0  0  0  0  0  0  0  0  0  0
   24.0247   25.7171   35.0122 C   0  0  0  0  0  0  0  0  0  0  0  0
   22.9361   26.5026   35.1449 N   0  0  0  0  0  0  0  0  0  0  0  0
   21.9308   25.6363   35.3732 C   0  0  0  0  0  0  0  0  0  0  0  0
   22.4249   24.3498   35.3773 C   0  0  0  0  0  0  0  0  0  0  0  0
   21.6229   23.1237   35.7017 C   0  0  0  0  0  0  0  0  0  0  0  0
   22.1763   21.9568   35.0096 N   0  0  0  0  0  0  0  0  0  0  0  0
   23.2970   21.2277   35.6232 C   0  0  0  0  0  0  0  0  0  0  0  0
   24.3783   22.1820   36.1580 C   0  0  0  0  0  0  0  0  0  0  0  0
   24.7301   23.2895   35.1531 C   0  0  0  0  0  0  0  0  0  0  0  0
   23.7621   24.3988   35.1838 N   0  0  0  0  0  0  0  0  0  0  0  0
   21.6741   21.5996   33.7053 C   0  0  0  0  0  0  0  0  0  0  0  0
   21.2094   22.4982   32.9515 O   0  0  0  0  0  0  0  0  0  0  0  0
   21.7395   20.1790   33.2051 C   0  0  0  0  0  0  0  0  0  0  0  0
   20.5251   19.8150   32.3541 C   0  0  0  0  0  0  0  0  0  0  0  0
  1  2  1  0
  2  3  2  0
  2  4  1  0
  4  5  2  0
  5  6  1  0
  6  7  2  0
  7  8  1  0
  8  9  2  0
  9 10  1  0
 10 11  2  0
 11 12  1  0
 12 13  2  0
 13 14  1  0
  1 15  1  0
 15 16  2  0
 16 17  1  0
 17 18  2  0
 18 19  1  0
 19 20  1  0
 20 21  1  0
 21 22  1  0
 22 23  1  0
 23 24  1  0
 20 25  1  0
 25 26  2  0
 25 27  1  0
 27 28  1  0
 13  4  1  0
 24 15  1  0
 12  7  1  0
 24 18  1  0
M  END
>  <AAScore>  (1) 
17071.987665795787

>  <RootName>  (1) 
./4ZLY/04_DeltaGEst/trajectory_03/rank_00/lead_0214

$$$$
