confid_10
     RDKit          3D

 28 31  0  0  0  0  0  0  0  0999 V2000
   24.4800   26.1000   36.1300 N   0  0  0  0  0  0  0  0  0  0  0  0
   25.2500   26.2500   34.9900 C   0  0  0  0  0  0  0  0  0  0  0  0
   24.7400   25.7600   33.9900 O   0  0  0  0  0  0  0  0  0  0  0  0
   26.5900   26.8900   34.9600 C   0  0  0  0  0  0  0  0  0  0  0  0
   27.0600   27.2400   36.1600 N   0  0  0  0  0  0  0  0  0  0  0  0
   28.3000   27.7100   36.2400 N   0  0  0  0  0  0  0  0  0  0  0  0
   29.0500   27.9600   35.1500 C   0  0  0  0  0  0  0  0  0  0  0  0
   30.3400   28.4900   35.2600 C   0  0  0  0  0  0  0  0  0  0  0  0
   31.1100   28.8200   34.1400 C   0  0  0  0  0  0  0  0  0  0  0  0
   30.5200   28.6700   32.8800 C   0  0  0  0  0  0  0  0  0  0  0  0
   29.2900   28.0200   32.7700 C   0  0  0  0  0  0  0  0  0  0  0  0
   28.5200   27.7100   33.8900 C   0  0  0  0  0  0  0  0  0  0  0  0
   27.2700   27.0800   33.7600 C   0  0  0  0  0  0  0  0  0  0  0  0
   26.7500   26.8800   32.4900 N   0  0  0  0  0  0  0  0  0  0  0  0
   23.1003   25.6037   36.1346 C   0  0  0  0  0  0  0  0  0  0  0  0
   22.1740   26.6290   35.5382 C   0  0  0  0  0  0  0  0  0  0  0  0
   21.6020   26.4261   34.2732 C   0  0  0  0  0  0  0  0  0  0  0  0
   20.7661   27.3961   33.7131 C   0  0  0  0  0  0  0  0  0  0  0  0
   20.4870   28.5843   34.4095 C   0  0  0  0  0  0  0  0  0  0  0  0
   19.6423   29.5940   33.8230 N   0  0  0  0  0  0  0  0  0  0  0  0
   18.3856   29.2426   33.1557 C   0  0  0  0  0  0  0  0  0  0  0  0
   18.3782   29.7810   31.7123 C   0  0  0  0  0  0  0  0  0  0  0  0
   19.1403   31.0456   31.5361 N   0  0  0  0  0  0  0  0  0  0  0  0
   20.4337   30.8170   30.8683 C   0  0  0  0  0  0  0  0  0  0  0  0
   19.2972   31.8144   32.7898 C   0  0  0  0  0  0  0  0  0  0  0  0
   20.0394   31.0055   33.8679 C   0  0  0  0  0  0  0  0  0  0  0  0
   21.0723   28.7903   35.6699 C   0  0  0  0  0  0  0  0  0  0  0  0
   21.9075   27.8197   36.2300 C   0  0  0  0  0  0  0  0  0  0  0  0
  1  2  1  0
  2  3  2  0
  2  4  1  0
  4  5  2  0
  5  6  1  0
  6  7  2  0
  7  8  1  0
  8  9  2  0
  9 10  1  0
 10 11  2  0
 11 12  1  0
 12 13  2  0
 13 14  1  0
  1 15  1  0
 15 16  1  0
 16 17  2  0
 17 18  1  0
 18 19  2  0
 19 20  1  0
 20 21  1  0
 21 22  1  0
 22 23  1  0
 23 24  1  0
 23 25  1  0
 25 26  1  0
 19 27  1  0
 27 28  2  0
 13  4  1  0
 28 16  1  0
 12  7  1  0
 26 20  1  0
M  END
>  <AAScore>  (1) 
570.5903698561494

>  <RootName>  (1) 
./4ZLY/04_DeltaGEst/trajectory_00/rank_00/lead_0184

$$$$
