confid_14
     RDKit          3D

 29 33  0  0  0  0  0  0  0  0999 V2000
   24.6900   26.1200   35.5300 N   0  0  0  0  0  0  0  0  0  0  0  0
   25.6600   25.6700   34.6600 C   0  0  0  0  0  0  0  0  0  0  0  0
   25.2400   25.0100   33.7200 O   0  0  0  0  0  0  0  0  0  0  0  0
   27.0300   26.2200   34.8800 C   0  0  0  0  0  0  0  0  0  0  0  0
   27.3500   26.7300   36.0700 N   0  0  0  0  0  0  0  0  0  0  0  0
   28.5700   27.1800   36.3300 N   0  0  0  0  0  0  0  0  0  0  0  0
   29.5300   27.1100   35.3900 C   0  0  0  0  0  0  0  0  0  0  0  0
   30.8300   27.5700   35.6500 C   0  0  0  0  0  0  0  0  0  0  0  0
   31.8500   27.5400   34.6900 C   0  0  0  0  0  0  0  0  0  0  0  0
   31.5100   27.1200   33.4000 C   0  0  0  0  0  0  0  0  0  0  0  0
   30.2200   26.6300   33.1100 C   0  0  0  0  0  0  0  0  0  0  0  0
   29.2400   26.6600   34.1000 C   0  0  0  0  0  0  0  0  0  0  0  0
   27.9300   26.2600   33.8100 C   0  0  0  0  0  0  0  0  0  0  0  0
   27.5200   25.7100   32.6100 N   0  0  0  0  0  0  0  0  0  0  0  0
   31.1457   28.0687   36.9623 N   0  0  0  0  0  0  0  0  0  0  0  0
   30.5629   29.3333   37.4238 C   0  0  0  0  0  0  0  0  0  0  0  0
   30.0288   29.2158   38.8647 C   0  0  0  0  0  0  0  0  0  0  0  0
   30.7349   28.1128   39.7111 C   0  0  0  0  0  0  0  0  0  0  0  0
   32.1816   27.8825   39.2158 C   0  0  0  0  0  0  0  0  0  0  0  0
   32.2028   27.4192   37.7494 C   0  0  0  0  0  0  0  0  0  0  0  0
   29.9082   26.7640   39.7200 C   0  0  0  0  0  0  0  0  0  0  0  0
   29.4089   26.6746   41.1210 C   0  0  0  0  0  0  0  0  0  0  0  0
   29.0419   25.6214   41.9313 C   0  0  0  0  0  0  0  0  0  0  0  0
   29.2656   25.9833   43.2159 N   0  0  0  0  0  0  0  0  0  0  0  0
   29.8247   27.2141   43.2206 C   0  0  0  0  0  0  0  0  0  0  0  0
   29.8871   27.6415   41.9153 C   0  0  0  0  0  0  0  0  0  0  0  0
   30.7427   28.5205   41.1714 C   0  0  0  0  0  0  0  0  0  0  0  0
   31.4171   29.4614   41.6690 O   0  0  0  0  0  0  0  0  0  0  0  0
   29.1508   25.1719   44.2889 F   0  0  0  0  0  0  0  0  0  0  0  0
  1  2  1  0
  2  3  2  0
  2  4  1  0
  4  5  2  0
  5  6  1  0
  6  7  2  0
  7  8  1  0
  8  9  2  0
  9 10  1  0
 10 11  2  0
 11 12  1  0
 12 13  2  0
 13 14  1  0
  8 15  1  0
 15 16  1  0
 16 17  1  0
 17 18  1  0
 18 19  1  0
 19 20  1  0
 18 21  1  0
 21 22  1  0
 22 23  2  0
 23 24  1  0
 24 25  1  0
 25 26  2  0
 26 27  1  0
 27 28  2  0
 24 29  1  0
 13  4  1  0
 20 15  1  0
 26 22  1  0
 12  7  1  0
 27 18  1  0
M  END
>  <AAScore>  (1) 
26.23875472909314

>  <RootName>  (1) 
./4ZLY/04_DeltaGEst/trajectory_02/rank_01/lead_0052

$$$$
