confid_18
     RDKit          3D

 28 31  0  0  0  0  0  0  0  0999 V2000
   24.5700   26.8800   35.5900 N   0  0  0  0  0  0  0  0  0  0  0  0
   25.5000   26.4000   34.6900 C   0  0  0  0  0  0  0  0  0  0  0  0
   25.1700   25.5200   33.9100 O   0  0  0  0  0  0  0  0  0  0  0  0
   26.8400   27.0200   34.7400 C   0  0  0  0  0  0  0  0  0  0  0  0
   27.3800   27.2800   35.9400 N   0  0  0  0  0  0  0  0  0  0  0  0
   28.6200   27.7400   36.0300 N   0  0  0  0  0  0  0  0  0  0  0  0
   29.3800   28.0000   34.9600 C   0  0  0  0  0  0  0  0  0  0  0  0
   30.6700   28.5000   35.1300 C   0  0  0  0  0  0  0  0  0  0  0  0
   31.5400   28.6100   34.0300 C   0  0  0  0  0  0  0  0  0  0  0  0
   31.0900   28.2200   32.7700 C   0  0  0  0  0  0  0  0  0  0  0  0
   29.8000   27.7000   32.6000 C   0  0  0  0  0  0  0  0  0  0  0  0
   28.9600   27.5500   33.7100 C   0  0  0  0  0  0  0  0  0  0  0  0
   27.6600   27.0300   33.5900 C   0  0  0  0  0  0  0  0  0  0  0  0
   27.1600   26.7400   32.3400 N   0  0  0  0  0  0  0  0  0  0  0  0
   23.2239   26.3887   35.7000 C   0  0  0  0  0  0  0  0  0  0  0  0
   22.6890   26.1937   36.9439 N   0  0  0  0  0  0  0  0  0  0  0  0
   21.4186   25.7331   37.1228 C   0  0  0  0  0  0  0  0  0  0  0  0
   20.6399   25.4666   36.0004 C   0  0  0  0  0  0  0  0  0  0  0  0
   19.2577   24.9561   35.9438 C   0  0  0  0  0  0  0  0  0  0  0  0
   18.9113   24.8919   34.5006 N   0  0  0  0  0  0  0  0  0  0  0  0
   18.4582   23.5389   34.1159 C   0  0  0  0  0  0  0  0  0  0  0  0
   17.7866   23.5511   32.7416 C   0  0  0  0  0  0  0  0  0  0  0  0
   20.1073   25.3366   33.7342 C   0  0  2  0  0  0  0  0  0  0  0  0
   21.1273   25.6845   34.7526 C   0  0  0  0  0  0  0  0  0  0  0  0
   22.4283   26.1512   34.5585 C   0  0  0  0  0  0  0  0  0  0  0  0
   19.7532   26.5471   32.9055 C   0  0  0  0  0  0  0  0  0  0  0  0
   19.2937   27.5421   33.4496 O   0  0  0  0  0  0  0  0  0  0  0  0
   19.9526   26.5577   31.4188 C   0  0  0  0  0  0  0  0  0  0  0  0
  1  2  1  0
  2  3  2  0
  2  4  1  0
  4  5  2  0
  5  6  1  0
  6  7  2  0
  7  8  1  0
  8  9  2  0
  9 10  1  0
 10 11  2  0
 11 12  1  0
 12 13  2  0
 13 14  1  0
  1 15  1  0
 15 16  2  0
 16 17  1  0
 17 18  2  0
 18 19  1  0
 19 20  1  0
 20 21  1  0
 21 22  1  0
 20 23  1  0
 23 24  1  0
 24 25  2  0
 23 26  1  1
 26 27  2  0
 26 28  1  0
 13  4  1  0
 25 15  1  0
 12  7  1  0
 24 18  1  0
M  END
>  <AAScore>  (1) 
6153.109446844638

>  <RootName>  (1) 
./4ZLY/04_DeltaGEst/trajectory_05/rank_00/lead_0276

$$$$
