confid_4
     RDKit          3D

 28 31  0  0  0  0  0  0  0  0999 V2000
   24.5500   26.3900   36.2500 N   0  0  0  0  0  0  0  0  0  0  0  0
   25.6000   26.1300   35.4000 C   0  0  0  0  0  0  0  0  0  0  0  0
   25.4300   25.4300   34.4200 O   0  0  0  0  0  0  0  0  0  0  0  0
   26.9800   26.6300   35.7100 C   0  0  0  0  0  0  0  0  0  0  0  0
   27.3200   26.8200   36.9800 N   0  0  0  0  0  0  0  0  0  0  0  0
   28.4700   27.4000   37.3100 N   0  0  0  0  0  0  0  0  0  0  0  0
   29.4000   27.6300   36.3700 C   0  0  0  0  0  0  0  0  0  0  0  0
   30.6600   28.0500   36.8000 C   0  0  0  0  0  0  0  0  0  0  0  0
   31.5700   28.3600   35.7800 C   0  0  0  0  0  0  0  0  0  0  0  0
   31.3700   28.1000   34.4300 C   0  0  0  0  0  0  0  0  0  0  0  0
   30.1200   27.5900   34.0500 C   0  0  0  0  0  0  0  0  0  0  0  0
   29.1500   27.3400   35.0300 C   0  0  0  0  0  0  0  0  0  0  0  0
   27.8800   26.8900   34.6600 C   0  0  0  0  0  0  0  0  0  0  0  0
   27.4800   26.6100   33.3700 N   0  0  0  0  0  0  0  0  0  0  0  0
   30.9394   28.3782   38.1715 N   0  0  0  0  0  0  0  0  0  0  0  0
   32.1015   27.7770   38.8352 C   0  0  0  0  0  0  0  0  0  0  0  0
   32.0459   28.0207   40.3498 C   0  0  0  0  0  0  0  0  0  0  0  0
   30.6362   27.9727   40.7787 N   0  0  0  0  0  0  0  0  0  0  0  0
   30.4931   27.7999   42.2417 C   0  0  0  0  0  0  0  0  0  0  0  0
   29.2433   26.9609   42.5572 C   0  0  0  0  0  0  0  0  0  0  0  0
   29.2863   25.6312   41.8426 C   0  0  0  0  0  0  0  0  0  0  0  0
   30.0425   24.5702   42.3709 C   0  0  0  0  0  0  0  0  0  0  0  0
   30.1732   23.3731   41.6550 C   0  0  0  0  0  0  0  0  0  0  0  0
   29.5754   23.2385   40.3954 C   0  0  0  0  0  0  0  0  0  0  0  0
   28.8189   24.2890   39.8654 C   0  0  0  0  0  0  0  0  0  0  0  0
   28.6559   25.4740   40.5932 C   0  0  0  0  0  0  0  0  0  0  0  0
   29.9073   29.1670   40.2920 C   0  0  0  0  0  0  0  0  0  0  0  0
   30.2277   29.4881   38.8169 C   0  0  0  0  0  0  0  0  0  0  0  0
  1  2  1  0
  2  3  2  0
  2  4  1  0
  4  5  2  0
  5  6  1  0
  6  7  2  0
  7  8  1  0
  8  9  2  0
  9 10  1  0
 10 11  2  0
 11 12  1  0
 12 13  2  0
 13 14  1  0
  8 15  1  0
 15 16  1  0
 16 17  1  0
 17 18  1  0
 18 19  1  0
 19 20  1  0
 20 21  1  0
 21 22  2  0
 22 23  1  0
 23 24  2  0
 24 25  1  0
 25 26  2  0
 18 27  1  0
 27 28  1  0
 13  4  1  0
 28 15  1  0
 12  7  1  0
 26 21  1  0
M  END
>  <AAScore>  (1) 
152.53319689830377

>  <RootName>  (1) 
./4ZLY/04_DeltaGEst/trajectory_01/rank_01/lead_0458

$$$$
