confid_1
     RDKit          3D

 29 32  0  0  0  0  0  0  0  0999 V2000
   24.6900   26.1200   35.5300 N   0  0  0  0  0  0  0  0  0  0  0  0
   25.6600   25.6700   34.6600 C   0  0  0  0  0  0  0  0  0  0  0  0
   25.2400   25.0100   33.7200 O   0  0  0  0  0  0  0  0  0  0  0  0
   27.0300   26.2200   34.8800 C   0  0  0  0  0  0  0  0  0  0  0  0
   27.3500   26.7300   36.0700 N   0  0  0  0  0  0  0  0  0  0  0  0
   28.5700   27.1800   36.3300 N   0  0  0  0  0  0  0  0  0  0  0  0
   29.5300   27.1100   35.3900 C   0  0  0  0  0  0  0  0  0  0  0  0
   30.8300   27.5700   35.6500 C   0  0  0  0  0  0  0  0  0  0  0  0
   31.8500   27.5400   34.6900 C   0  0  0  0  0  0  0  0  0  0  0  0
   31.5100   27.1200   33.4000 C   0  0  0  0  0  0  0  0  0  0  0  0
   30.2200   26.6300   33.1100 C   0  0  0  0  0  0  0  0  0  0  0  0
   29.2400   26.6600   34.1000 C   0  0  0  0  0  0  0  0  0  0  0  0
   27.9300   26.2600   33.8100 C   0  0  0  0  0  0  0  0  0  0  0  0
   27.5200   25.7100   32.6100 N   0  0  0  0  0  0  0  0  0  0  0  0
   23.2862   26.1204   35.2255 C   0  0  0  0  0  0  0  0  0  0  0  0
   22.3718   25.5805   36.0587 N   0  0  0  0  0  0  0  0  0  0  0  0
   21.1986   25.7537   35.4190 C   0  0  0  0  0  0  0  0  0  0  0  0
   21.4211   26.3919   34.2176 C   0  0  0  0  0  0  0  0  0  0  0  0
   20.3559   26.8024   33.2409 C   0  0  0  0  0  0  0  0  0  0  0  0
   20.8144   26.5877   31.8667 N   0  0  0  0  0  0  0  0  0  0  0  0
   21.1246   27.6833   30.9835 C   0  0  0  0  0  0  0  0  0  0  0  0
   20.6606   27.6493   29.8096 O   0  0  0  0  0  0  0  0  0  0  0  0
   22.0111   28.8723   31.3759 C   0  0  0  0  0  0  0  0  0  0  0  0
   21.1319   30.1399   31.3868 C   0  0  0  0  0  0  0  0  0  0  0  0
   23.1026   29.0489   30.2929 C   0  0  0  0  0  0  0  0  0  0  0  0
   22.7110   28.7530   32.7673 C   0  0  0  0  0  0  0  0  0  0  0  0
   23.4183   27.4064   33.0380 C   0  0  0  0  0  0  0  0  0  0  0  0
   22.7412   26.6546   34.1053 N   0  0  0  0  0  0  0  0  0  0  0  0
   20.8694   25.2239   31.3349 C   0  0  0  0  0  0  0  0  0  0  0  0
  1  2  1  0
  2  3  2  0
  2  4  1  0
  4  5  2  0
  5  6  1  0
  6  7  2  0
  7  8  1  0
  8  9  2  0
  9 10  1  0
 10 11  2  0
 11 12  1  0
 12 13  2  0
 13 14  1  0
  1 15  1  0
 15 16  2  0
 16 17  1  0
 17 18  2  0
 18 19  1  0
 19 20  1  0
 20 21  1  0
 21 22  2  0
 21 23  1  0
 23 24  1  0
 23 25  1  0
 23 26  1  0
 26 27  1  0
 27 28  1  0
 20 29  1  0
 13  4  1  0
 28 15  1  0
 12  7  1  0
 28 18  1  0
M  END
>  <AAScore>  (1) 
3979.02061030454

>  <RootName>  (1) 
./4ZLY/04_DeltaGEst/trajectory_02/rank_00/lead_0337

$$$$
