confid_12
     RDKit          3D

 25 27  0  0  0  0  0  0  0  0999 V2000
   24.5700   26.8800   35.5900 N   0  0  0  0  0  0  0  0  0  0  0  0
   25.5000   26.4000   34.6900 C   0  0  0  0  0  0  0  0  0  0  0  0
   25.1700   25.5200   33.9100 O   0  0  0  0  0  0  0  0  0  0  0  0
   26.8400   27.0200   34.7400 C   0  0  0  0  0  0  0  0  0  0  0  0
   27.3800   27.2800   35.9400 N   0  0  0  0  0  0  0  0  0  0  0  0
   28.6200   27.7400   36.0300 N   0  0  0  0  0  0  0  0  0  0  0  0
   29.3800   28.0000   34.9600 C   0  0  0  0  0  0  0  0  0  0  0  0
   30.6700   28.5000   35.1300 C   0  0  0  0  0  0  0  0  0  0  0  0
   31.5400   28.6100   34.0300 C   0  0  0  0  0  0  0  0  0  0  0  0
   31.0900   28.2200   32.7700 C   0  0  0  0  0  0  0  0  0  0  0  0
   29.8000   27.7000   32.6000 C   0  0  0  0  0  0  0  0  0  0  0  0
   28.9600   27.5500   33.7100 C   0  0  0  0  0  0  0  0  0  0  0  0
   27.6600   27.0300   33.5900 C   0  0  0  0  0  0  0  0  0  0  0  0
   27.1600   26.7400   32.3400 N   0  0  0  0  0  0  0  0  0  0  0  0
   33.1668   29.2507   34.2558 S   0  0  0  0  0  6  0  0  0  0  0  0
   33.9290   28.2798   35.1135 O   0  0  0  0  0  0  0  0  0  0  0  0
   33.8675   29.3708   32.9305 O   0  0  0  0  0  0  0  0  0  0  0  0
   33.1200   30.8675   35.0667 C   0  0  1  0  0  0  0  0  0  0  0  0
   34.5305   31.3147   35.4220 C   0  0  0  0  0  0  0  0  0  0  0  0
   35.0640   31.9797   34.2291 N   0  0  0  0  0  0  0  0  0  0  0  0
   33.9092   32.5605   33.4978 C   0  0  2  0  0  0  0  0  0  0  0  0
   33.8805   34.1021   33.4090 C   0  0  0  0  0  0  0  0  0  0  0  0
   32.6361   32.0278   34.1868 C   0  0  1  0  0  0  0  0  0  0  0  0
   31.4963   31.7129   33.2077 C   0  0  0  0  0  0  0  0  0  0  0  0
   36.1834   32.8776   34.5566 C   0  0  0  0  0  0  0  0  0  0  0  0
  1  2  1  0
  2  3  2  0
  2  4  1  0
  4  5  2  0
  5  6  1  0
  6  7  2  0
  7  8  1  0
  8  9  2  0
  9 10  1  0
 10 11  2  0
 11 12  1  0
 12 13  2  0
 13 14  1  0
  9 15  1  0
 15 16  2  0
 15 17  2  0
 18 15  1  6
 18 19  1  0
 19 20  1  0
 20 21  1  0
 21 22  1  1
 21 23  1  0
 23 24  1  6
 20 25  1  0
 13  4  1  0
 23 18  1  0
 12  7  1  0
M  END
>  <AAScore>  (1) 
-6.220228466622595

>  <RootName>  (1) 
./4ZLY/04_DeltaGEst/trajectory_05/rank_01/lead_0100

$$$$
