confid_4
     RDKit          3D

 27 30  0  0  0  0  0  0  0  0999 V2000
   24.4800   26.1000   36.1300 N   0  0  0  0  0  0  0  0  0  0  0  0
   25.2500   26.2500   34.9900 C   0  0  0  0  0  0  0  0  0  0  0  0
   24.7400   25.7600   33.9900 O   0  0  0  0  0  0  0  0  0  0  0  0
   26.5900   26.8900   34.9600 C   0  0  0  0  0  0  0  0  0  0  0  0
   27.0600   27.2400   36.1600 N   0  0  0  0  0  0  0  0  0  0  0  0
   28.3000   27.7100   36.2400 N   0  0  0  0  0  0  0  0  0  0  0  0
   29.0500   27.9600   35.1500 C   0  0  0  0  0  0  0  0  0  0  0  0
   30.3400   28.4900   35.2600 C   0  0  0  0  0  0  0  0  0  0  0  0
   31.1100   28.8200   34.1400 C   0  0  0  0  0  0  0  0  0  0  0  0
   30.5200   28.6700   32.8800 C   0  0  0  0  0  0  0  0  0  0  0  0
   29.2900   28.0200   32.7700 C   0  0  0  0  0  0  0  0  0  0  0  0
   28.5200   27.7100   33.8900 C   0  0  0  0  0  0  0  0  0  0  0  0
   27.2700   27.0800   33.7600 C   0  0  0  0  0  0  0  0  0  0  0  0
   26.7500   26.8800   32.4900 N   0  0  0  0  0  0  0  0  0  0  0  0
   23.5032   25.0570   36.3319 C   0  0  0  0  0  0  0  0  0  0  0  0
   23.5443   23.9284   35.5687 N   0  0  0  0  0  0  0  0  0  0  0  0
   22.6617   22.9065   35.7256 C   0  0  0  0  0  0  0  0  0  0  0  0
   22.7922   21.6698   34.8725 C   0  0  0  0  0  0  0  0  0  0  0  0
   21.5052   20.9591   34.7043 N   0  0  0  0  0  0  0  0  0  0  0  0
   20.5872   21.6880   33.8111 C   0  0  0  0  0  0  0  0  0  0  0  0
   20.8752   20.6417   36.0047 C   0  0  0  0  0  0  0  0  0  0  0  0
   20.7353   21.8577   36.8813 C   0  0  0  0  0  0  0  0  0  0  0  0
   19.8398   21.8881   37.7679 O   0  0  0  0  0  0  0  0  0  0  0  0
   21.6829   22.9768   36.7259 C   0  0  0  0  0  0  0  0  0  0  0  0
   21.6174   24.1216   37.5305 C   0  0  0  0  0  0  0  0  0  0  0  0
   22.5262   25.1667   37.3413 C   0  0  0  0  0  0  0  0  0  0  0  0
   22.3941   26.5949   38.3605 Cl  0  0  0  0  0  0  0  0  0  0  0  0
  1  2  1  0
  2  3  2  0
  2  4  1  0
  4  5  2  0
  5  6  1  0
  6  7  2  0
  7  8  1  0
  8  9  2  0
  9 10  1  0
 10 11  2  0
 11 12  1  0
 12 13  2  0
 13 14  1  0
  1 15  1  0
 15 16  2  0
 16 17  1  0
 17 18  1  0
 18 19  1  0
 19 20  1  0
 19 21  1  0
 21 22  1  0
 22 23  2  0
 22 24  1  0
 24 25  1  0
 25 26  2  0
 26 27  1  0
 13  4  1  0
 26 15  1  0
 12  7  1  0
 24 17  2  0
M  END
>  <AAScore>  (1) 
256.5312385161056

>  <RootName>  (1) 
./4ZLY/04_DeltaGEst/trajectory_00/rank_01/lead_0080

$$$$
