confid_14
     RDKit          3D

 27 30  0  0  0  0  0  0  0  0999 V2000
   24.5500   26.3900   36.2500 N   0  0  0  0  0  0  0  0  0  0  0  0
   25.6000   26.1300   35.4000 C   0  0  0  0  0  0  0  0  0  0  0  0
   25.4300   25.4300   34.4200 O   0  0  0  0  0  0  0  0  0  0  0  0
   26.9800   26.6300   35.7100 C   0  0  0  0  0  0  0  0  0  0  0  0
   27.3200   26.8200   36.9800 N   0  0  0  0  0  0  0  0  0  0  0  0
   28.4700   27.4000   37.3100 N   0  0  0  0  0  0  0  0  0  0  0  0
   29.4000   27.6300   36.3700 C   0  0  0  0  0  0  0  0  0  0  0  0
   30.6600   28.0500   36.8000 C   0  0  0  0  0  0  0  0  0  0  0  0
   31.5700   28.3600   35.7800 C   0  0  0  0  0  0  0  0  0  0  0  0
   31.3700   28.1000   34.4300 C   0  0  0  0  0  0  0  0  0  0  0  0
   30.1200   27.5900   34.0500 C   0  0  0  0  0  0  0  0  0  0  0  0
   29.1500   27.3400   35.0300 C   0  0  0  0  0  0  0  0  0  0  0  0
   27.8800   26.8900   34.6600 C   0  0  0  0  0  0  0  0  0  0  0  0
   27.4800   26.6100   33.3700 N   0  0  0  0  0  0  0  0  0  0  0  0
   31.0175   28.2735   38.2253 C   0  0  0  0  0  0  0  0  0  0  0  0
   31.8818   29.2588   38.7042 C   0  0  0  0  0  0  0  0  0  0  0  0
   32.0660   29.2163   40.0948 C   0  0  0  0  0  0  0  0  0  0  0  0
   32.9146   30.1992   40.8414 C   0  0  0  0  0  0  0  0  0  0  0  0
   32.1604   30.7510   41.9784 N   0  0  0  0  0  0  0  0  0  0  0  0
   31.9352   29.9611   43.2049 C   0  0  0  0  0  0  0  0  0  0  0  0
   32.1961   28.4552   43.0409 C   0  0  0  0  0  0  0  0  0  0  0  0
   31.3298   27.8713   42.0692 O   0  0  0  0  0  0  0  0  0  0  0  0
   31.3605   28.1815   40.7052 C   0  0  0  0  0  0  0  0  0  0  0  0
   30.5036   27.3396   39.5352 S   0  0  0  0  0  0  0  0  0  0  0  0
   31.5740   32.0701   41.9050 C   0  0  0  0  0  0  0  0  0  0  0  0
   31.2399   32.6663   42.9651 O   0  0  0  0  0  0  0  0  0  0  0  0
   31.3563   32.7675   40.5953 C   0  0  0  0  0  0  0  0  0  0  0  0
  1  2  1  0
  2  3  2  0
  2  4  1  0
  4  5  2  0
  5  6  1  0
  6  7  2  0
  7  8  1  0
  8  9  2  0
  9 10  1  0
 10 11  2  0
 11 12  1  0
 12 13  2  0
 13 14  1  0
  8 15  1  0
 15 16  2  0
 16 17  1  0
 17 18  1  0
 18 19  1  0
 19 20  1  0
 20 21  1  0
 21 22  1  0
 22 23  1  0
 23 24  1  0
 19 25  1  0
 25 26  2  0
 25 27  1  0
 13  4  1  0
 24 15  1  0
 12  7  1  0
 23 17  2  0
M  END
>  <AAScore>  (1) 
292.3161695208836

>  <RootName>  (1) 
./4ZLY/04_DeltaGEst/trajectory_01/rank_01/lead_0356

$$$$
