confid_8
     RDKit          3D

 27 30  0  0  0  0  0  0  0  0999 V2000
   24.6900   26.1200   35.5300 N   0  0  0  0  0  0  0  0  0  0  0  0
   25.6600   25.6700   34.6600 C   0  0  0  0  0  0  0  0  0  0  0  0
   25.2400   25.0100   33.7200 O   0  0  0  0  0  0  0  0  0  0  0  0
   27.0300   26.2200   34.8800 C   0  0  0  0  0  0  0  0  0  0  0  0
   27.3500   26.7300   36.0700 N   0  0  0  0  0  0  0  0  0  0  0  0
   28.5700   27.1800   36.3300 N   0  0  0  0  0  0  0  0  0  0  0  0
   29.5300   27.1100   35.3900 C   0  0  0  0  0  0  0  0  0  0  0  0
   30.8300   27.5700   35.6500 C   0  0  0  0  0  0  0  0  0  0  0  0
   31.8500   27.5400   34.6900 C   0  0  0  0  0  0  0  0  0  0  0  0
   31.5100   27.1200   33.4000 C   0  0  0  0  0  0  0  0  0  0  0  0
   30.2200   26.6300   33.1100 C   0  0  0  0  0  0  0  0  0  0  0  0
   29.2400   26.6600   34.1000 C   0  0  0  0  0  0  0  0  0  0  0  0
   27.9300   26.2600   33.8100 C   0  0  0  0  0  0  0  0  0  0  0  0
   27.5200   25.7100   32.6100 N   0  0  0  0  0  0  0  0  0  0  0  0
   31.1842   28.0722   37.0014 C   0  0  0  0  0  0  0  0  0  0  0  0
   30.9776   27.2715   38.1385 C   0  0  0  0  0  0  0  0  0  0  0  0
   31.3279   27.7416   39.4128 C   0  0  0  0  0  0  0  0  0  0  0  0
   31.0761   26.8905   40.6337 C   0  0  0  0  0  0  0  0  0  0  0  0
   31.9495   27.3217   41.8344 C   0  0  1  0  0  0  0  0  0  0  0  0
   33.2860   27.0292   41.5713 F   0  0  0  0  0  0  0  0  0  0  0  0
   31.8304   28.8417   42.0155 C   0  0  0  0  0  0  0  0  0  0  0  0
   32.2056   29.5220   40.8186 O   0  0  0  0  0  0  0  0  0  0  0  0
   31.8658   29.0339   39.5529 C   0  0  0  0  0  0  0  0  0  0  0  0
   32.0873   29.8256   38.4231 C   0  0  0  0  0  0  0  0  0  0  0  0
   31.7520   29.3481   37.1537 C   0  0  0  0  0  0  0  0  0  0  0  0
   31.4877   26.7025   43.0274 O   0  0  0  0  0  0  0  0  0  0  0  0
   32.0629   25.4268   43.2178 C   0  0  0  0  0  0  0  0  0  0  0  0
  1  2  1  0
  2  3  2  0
  2  4  1  0
  4  5  2  0
  5  6  1  0
  6  7  2  0
  7  8  1  0
  8  9  2  0
  9 10  1  0
 10 11  2  0
 11 12  1  0
 12 13  2  0
 13 14  1  0
  8 15  1  0
 15 16  2  0
 16 17  1  0
 17 18  1  0
 18 19  1  0
 19 20  1  6
 19 21  1  0
 21 22  1  0
 22 23  1  0
 23 24  1  0
 24 25  2  0
 19 26  1  0
 26 27  1  0
 13  4  1  0
 25 15  1  0
 12  7  1  0
 23 17  2  0
M  END
>  <AAScore>  (1) 
0.9112593662967626

>  <RootName>  (1) 
./4ZLY/04_DeltaGEst/trajectory_02/rank_01/lead_0429

$$$$
