confid_2
     RDKit          3D

 26 28  0  0  0  0  0  0  0  0999 V2000
   24.5500   26.3900   36.2500 N   0  0  0  0  0  0  0  0  0  0  0  0
   25.6000   26.1300   35.4000 C   0  0  0  0  0  0  0  0  0  0  0  0
   25.4300   25.4300   34.4200 O   0  0  0  0  0  0  0  0  0  0  0  0
   26.9800   26.6300   35.7100 C   0  0  0  0  0  0  0  0  0  0  0  0
   27.3200   26.8200   36.9800 N   0  0  0  0  0  0  0  0  0  0  0  0
   28.4700   27.4000   37.3100 N   0  0  0  0  0  0  0  0  0  0  0  0
   29.4000   27.6300   36.3700 C   0  0  0  0  0  0  0  0  0  0  0  0
   30.6600   28.0500   36.8000 C   0  0  0  0  0  0  0  0  0  0  0  0
   31.5700   28.3600   35.7800 C   0  0  0  0  0  0  0  0  0  0  0  0
   31.3700   28.1000   34.4300 C   0  0  0  0  0  0  0  0  0  0  0  0
   30.1200   27.5900   34.0500 C   0  0  0  0  0  0  0  0  0  0  0  0
   29.1500   27.3400   35.0300 C   0  0  0  0  0  0  0  0  0  0  0  0
   27.8800   26.8900   34.6600 C   0  0  0  0  0  0  0  0  0  0  0  0
   27.4800   26.6100   33.3700 N   0  0  0  0  0  0  0  0  0  0  0  0
   23.1694   26.0755   35.9635 C   0  0  0  0  0  0  0  0  0  0  0  0
   22.7932   25.7462   34.6949 N   0  0  0  0  0  0  0  0  0  0  0  0
   21.5050   25.4578   34.3615 C   0  0  0  0  0  0  0  0  0  0  0  0
   21.1627   25.1214   33.0482 O   0  0  0  0  0  0  0  0  0  0  0  0
   22.1176   25.0454   31.9950 C   0  0  0  0  0  0  0  0  0  0  0  0
   21.4643   24.7763   30.8080 F   0  0  0  0  0  0  0  0  0  0  0  0
   23.0238   24.0327   32.2528 F   0  0  0  0  0  0  0  0  0  0  0  0
   20.5126   25.5000   35.3407 C   0  0  0  0  0  0  0  0  0  0  0  0
   20.8556   25.8371   36.6495 C   0  0  0  0  0  0  0  0  0  0  0  0
   22.1852   26.1300   36.9749 C   0  0  0  0  0  0  0  0  0  0  0  0
   22.5137   26.4633   38.3393 C   0  0  0  0  0  0  0  0  0  0  0  0
   22.7768   26.7304   39.4342 N   0  0  0  0  0  0  0  0  0  0  0  0
  1  2  1  0
  2  3  2  0
  2  4  1  0
  4  5  2  0
  5  6  1  0
  6  7  2  0
  7  8  1  0
  8  9  2  0
  9 10  1  0
 10 11  2  0
 11 12  1  0
 12 13  2  0
 13 14  1  0
  1 15  1  0
 15 16  2  0
 16 17  1  0
 17 18  1  0
 18 19  1  0
 19 20  1  0
 19 21  1  0
 17 22  2  0
 22 23  1  0
 23 24  2  0
 24 25  1  0
 25 26  3  0
 13  4  1  0
 24 15  1  0
 12  7  1  0
M  END
>  <AAScore>  (1) 
3166.7822136415

>  <RootName>  (1) 
./4ZLY/04_DeltaGEst/trajectory_01/rank_00/lead_0184

$$$$
