confid_0
     RDKit          3D

 28 31  0  0  0  0  0  0  0  0999 V2000
   24.2000   26.2400   35.6900 N   0  0  0  0  0  0  0  0  0  0  0  0
   24.8500   26.2800   34.4800 C   0  0  0  0  0  0  0  0  0  0  0  0
   24.3100   25.7400   33.5400 O   0  0  0  0  0  0  0  0  0  0  0  0
   26.1800   26.9700   34.4700 C   0  0  0  0  0  0  0  0  0  0  0  0
   26.6500   27.6000   35.5500 N   0  0  0  0  0  0  0  0  0  0  0  0
   27.7900   28.2700   35.6200 N   0  0  0  0  0  0  0  0  0  0  0  0
   28.5400   28.3000   34.5100 C   0  0  0  0  0  0  0  0  0  0  0  0
   29.7700   28.9400   34.5600 C   0  0  0  0  0  0  0  0  0  0  0  0
   30.7000   28.8900   33.5000 C   0  0  0  0  0  0  0  0  0  0  0  0
   30.3700   28.1400   32.3700 C   0  0  0  0  0  0  0  0  0  0  0  0
   29.1200   27.5200   32.2800 C   0  0  0  0  0  0  0  0  0  0  0  0
   28.2100   27.6100   33.3300 C   0  0  0  0  0  0  0  0  0  0  0  0
   26.9700   26.9700   33.3100 C   0  0  0  0  0  0  0  0  0  0  0  0
   26.5300   26.2400   32.2200 N   0  0  0  0  0  0  0  0  0  0  0  0
   30.1460   29.6506   35.7491 N   0  0  0  0  0  0  0  0  0  0  0  0
   30.8260   28.8622   36.7974 C   0  0  0  0  0  0  0  0  0  0  0  0
   30.9577   29.6368   38.1281 C   0  0  0  0  0  0  0  0  0  0  0  0
   31.5105   30.9819   37.9085 N   0  0  0  0  0  0  0  0  0  0  0  0
   32.3702   31.6270   38.9002 C   0  0  0  0  0  0  0  0  0  0  0  0
   31.0569   31.6893   36.7509 C   0  0  0  0  0  0  0  0  0  0  0  0
   31.0691   33.0444   36.5078 C   0  0  0  0  0  0  0  0  0  0  0  0
   30.3328   33.2061   35.3452 C   0  0  0  0  0  0  0  0  0  0  0  0
   29.8887   32.0126   34.8786 N   0  0  0  0  0  0  0  0  0  0  0  0
   30.3554   31.0808   35.7510 C   0  0  0  0  0  0  0  0  0  0  0  0
   28.8999   31.8905   33.8013 C   0  0  0  0  0  0  0  0  0  0  0  0
   27.4830   32.0545   34.3473 C   0  0  0  0  0  0  0  0  0  0  0  0
   27.2282   31.1108   35.3239 F   0  0  0  0  0  0  0  0  0  0  0  0
   26.5692   31.9017   33.3208 F   0  0  0  0  0  0  0  0  0  0  0  0
  1  2  1  0
  2  3  2  0
  2  4  1  0
  4  5  2  0
  5  6  1  0
  6  7  2  0
  7  8  1  0
  8  9  2  0
  9 10  1  0
 10 11  2  0
 11 12  1  0
 12 13  2  0
 13 14  1  0
  8 15  1  0
 15 16  1  0
 16 17  1  0
 17 18  1  0
 18 19  1  0
 18 20  1  0
 20 21  1  0
 21 22  2  0
 22 23  1  0
 23 24  1  0
 23 25  1  0
 25 26  1  0
 26 27  1  0
 26 28  1  0
 13  4  1  0
 24 15  1  0
 12  7  1  0
 24 20  2  0
M  END
>  <AAScore>  (1) 
53.480145547531365

>  <RootName>  (1) 
./4ZLY/04_DeltaGEst/trajectory_04/rank_01/lead_0043

$$$$
