confid_4
     RDKit          3D

 28 31  0  0  0  0  0  0  0  0999 V2000
   24.2000   26.2400   35.6900 N   0  0  0  0  0  0  0  0  0  0  0  0
   24.8500   26.2800   34.4800 C   0  0  0  0  0  0  0  0  0  0  0  0
   24.3100   25.7400   33.5400 O   0  0  0  0  0  0  0  0  0  0  0  0
   26.1800   26.9700   34.4700 C   0  0  0  0  0  0  0  0  0  0  0  0
   26.6500   27.6000   35.5500 N   0  0  0  0  0  0  0  0  0  0  0  0
   27.7900   28.2700   35.6200 N   0  0  0  0  0  0  0  0  0  0  0  0
   28.5400   28.3000   34.5100 C   0  0  0  0  0  0  0  0  0  0  0  0
   29.7700   28.9400   34.5600 C   0  0  0  0  0  0  0  0  0  0  0  0
   30.7000   28.8900   33.5000 C   0  0  0  0  0  0  0  0  0  0  0  0
   30.3700   28.1400   32.3700 C   0  0  0  0  0  0  0  0  0  0  0  0
   29.1200   27.5200   32.2800 C   0  0  0  0  0  0  0  0  0  0  0  0
   28.2100   27.6100   33.3300 C   0  0  0  0  0  0  0  0  0  0  0  0
   26.9700   26.9700   33.3100 C   0  0  0  0  0  0  0  0  0  0  0  0
   26.5300   26.2400   32.2200 N   0  0  0  0  0  0  0  0  0  0  0  0
   22.7806   26.0604   35.8429 C   0  0  0  0  0  0  0  0  0  0  0  0
   22.3126   25.4147   36.9429 N   0  0  0  0  0  0  0  0  0  0  0  0
   20.9867   25.2147   37.1651 C   0  0  0  0  0  0  0  0  0  0  0  0
   20.5740   24.4292   38.3790 C   0  0  0  0  0  0  0  0  0  0  0  0
   19.0545   24.4471   38.6146 C   0  0  0  0  0  0  0  0  0  0  0  0
   18.2771   24.3355   37.3611 N   0  0  0  0  0  0  0  0  0  0  0  0
   18.5618   25.4847   36.4779 C   0  0  0  0  0  0  0  0  0  0  0  0
   20.0427   25.6698   36.2239 C   0  0  0  0  0  0  0  0  0  0  0  0
   20.4895   26.3858   35.0976 C   0  0  0  0  0  0  0  0  0  0  0  0
   19.5426   26.8918   34.1916 O   0  0  0  0  0  0  0  0  0  0  0  0
   19.8608   27.6006   32.9981 C   0  0  0  0  0  0  0  0  0  0  0  0
   21.8693   26.5777   34.9095 C   0  0  0  0  0  0  0  0  0  0  0  0
   18.4479   23.0426   36.6574 C   0  0  0  0  0  0  0  0  0  0  0  0
   17.7634   21.9019   37.4082 C   0  0  0  0  0  0  0  0  0  0  0  0
  1  2  1  0
  2  3  2  0
  2  4  1  0
  4  5  2  0
  5  6  1  0
  6  7  2  0
  7  8  1  0
  8  9  2  0
  9 10  1  0
 10 11  2  0
 11 12  1  0
 12 13  2  0
 13 14  1  0
  1 15  1  0
 15 16  2  0
 16 17  1  0
 17 18  1  0
 18 19  1  0
 19 20  1  0
 20 21  1  0
 21 22  1  0
 22 23  1  0
 23 24  1  0
 24 25  1  0
 23 26  2  0
 20 27  1  0
 27 28  1  0
 13  4  1  0
 26 15  1  0
 12  7  1  0
 22 17  2  0
M  END
>  <AAScore>  (1) 
920.9093592147268

>  <RootName>  (1) 
./4ZLY/04_DeltaGEst/trajectory_04/rank_00/lead_0138

$$$$
