confid_3
     RDKit          3D

 27 30  0  0  0  0  0  0  0  0999 V2000
   24.2000   26.2400   35.6900 N   0  0  0  0  0  0  0  0  0  0  0  0
   24.8500   26.2800   34.4800 C   0  0  0  0  0  0  0  0  0  0  0  0
   24.3100   25.7400   33.5400 O   0  0  0  0  0  0  0  0  0  0  0  0
   26.1800   26.9700   34.4700 C   0  0  0  0  0  0  0  0  0  0  0  0
   26.6500   27.6000   35.5500 N   0  0  0  0  0  0  0  0  0  0  0  0
   27.7900   28.2700   35.6200 N   0  0  0  0  0  0  0  0  0  0  0  0
   28.5400   28.3000   34.5100 C   0  0  0  0  0  0  0  0  0  0  0  0
   29.7700   28.9400   34.5600 C   0  0  0  0  0  0  0  0  0  0  0  0
   30.7000   28.8900   33.5000 C   0  0  0  0  0  0  0  0  0  0  0  0
   30.3700   28.1400   32.3700 C   0  0  0  0  0  0  0  0  0  0  0  0
   29.1200   27.5200   32.2800 C   0  0  0  0  0  0  0  0  0  0  0  0
   28.2100   27.6100   33.3300 C   0  0  0  0  0  0  0  0  0  0  0  0
   26.9700   26.9700   33.3100 C   0  0  0  0  0  0  0  0  0  0  0  0
   26.5300   26.2400   32.2200 N   0  0  0  0  0  0  0  0  0  0  0  0
   22.7808   26.0692   35.8489 C   0  0  0  0  0  0  0  0  0  0  0  0
   21.9424   26.1226   34.7783 N   0  0  0  0  0  0  0  0  0  0  0  0
   20.6021   25.9700   34.9266 C   0  0  0  0  0  0  0  0  0  0  0  0
   20.0579   25.7523   36.1962 C   0  0  0  0  0  0  0  0  0  0  0  0
   18.5674   25.6167   36.3771 C   0  0  0  0  0  0  0  0  0  0  0  0
   18.2435   24.9393   37.6485 N   0  0  0  0  0  0  0  0  0  0  0  0
   16.7848   24.8938   37.8336 C   0  0  0  0  0  0  0  0  0  0  0  0
   18.8763   25.6511   38.7741 C   0  0  0  0  0  0  0  0  0  0  0  0
   20.4071   25.4827   38.6973 C   0  0  1  0  0  0  0  0  0  0  0  0
   20.9279   25.7505   37.3005 C   0  0  0  0  0  0  0  0  0  0  0  0
   22.2664   25.8837   37.0932 N   0  0  0  0  0  0  0  0  0  0  0  0
   21.1380   26.3118   39.7811 C   0  0  0  0  0  0  0  0  0  0  0  0
   21.0484   27.8292   39.5856 C   0  0  0  0  0  0  0  0  0  0  0  0
  1  2  1  0
  2  3  2  0
  2  4  1  0
  4  5  2  0
  5  6  1  0
  6  7  2  0
  7  8  1  0
  8  9  2  0
  9 10  1  0
 10 11  2  0
 11 12  1  0
 12 13  2  0
 13 14  1  0
  1 15  1  0
 15 16  2  0
 16 17  1  0
 17 18  2  0
 18 19  1  0
 19 20  1  0
 20 21  1  0
 20 22  1  0
 22 23  1  0
 23 24  1  0
 24 25  2  0
 23 26  1  1
 26 27  1  0
 13  4  1  0
 25 15  1  0
 12  7  1  0
 24 18  1  0
M  END
>  <AAScore>  (1) 
108.02529841271472

>  <RootName>  (1) 
./4ZLY/04_DeltaGEst/trajectory_04/rank_00/lead_0085

$$$$
