confid_11
     RDKit          3D

 27 30  0  0  0  0  0  0  0  0999 V2000
   24.2000   26.2400   35.6900 N   0  0  0  0  0  0  0  0  0  0  0  0
   24.8500   26.2800   34.4800 C   0  0  0  0  0  0  0  0  0  0  0  0
   24.3100   25.7400   33.5400 O   0  0  0  0  0  0  0  0  0  0  0  0
   26.1800   26.9700   34.4700 C   0  0  0  0  0  0  0  0  0  0  0  0
   26.6500   27.6000   35.5500 N   0  0  0  0  0  0  0  0  0  0  0  0
   27.7900   28.2700   35.6200 N   0  0  0  0  0  0  0  0  0  0  0  0
   28.5400   28.3000   34.5100 C   0  0  0  0  0  0  0  0  0  0  0  0
   29.7700   28.9400   34.5600 C   0  0  0  0  0  0  0  0  0  0  0  0
   30.7000   28.8900   33.5000 C   0  0  0  0  0  0  0  0  0  0  0  0
   30.3700   28.1400   32.3700 C   0  0  0  0  0  0  0  0  0  0  0  0
   29.1200   27.5200   32.2800 C   0  0  0  0  0  0  0  0  0  0  0  0
   28.2100   27.6100   33.3300 C   0  0  0  0  0  0  0  0  0  0  0  0
   26.9700   26.9700   33.3100 C   0  0  0  0  0  0  0  0  0  0  0  0
   26.5300   26.2400   32.2200 N   0  0  0  0  0  0  0  0  0  0  0  0
   22.7809   26.0671   35.8489 C   0  0  0  0  0  0  0  0  0  0  0  0
   21.9417   26.1212   34.7765 N   0  0  0  0  0  0  0  0  0  0  0  0
   20.6000   25.9716   34.9237 C   0  0  0  0  0  0  0  0  0  0  0  0
   20.0611   25.7624   36.1913 C   0  0  0  0  0  0  0  0  0  0  0  0
   18.6806   25.6141   36.3655 O   0  0  0  0  0  0  0  0  0  0  0  0
   18.1133   25.2335   37.6202 C   0  0  2  0  0  0  0  0  0  0  0  0
   18.9039   25.8573   38.7805 C   0  0  0  0  0  0  0  0  0  0  0  0
   18.7668   27.2352   38.7380 F   0  0  0  0  0  0  0  0  0  0  0  0
   18.3990   25.3999   39.9854 F   0  0  0  0  0  0  0  0  0  0  0  0
   20.3934   25.4876   38.6748 C   0  0  0  0  0  0  0  0  0  0  0  0
   20.9295   25.7338   37.2910 C   0  0  0  0  0  0  0  0  0  0  0  0
   22.2668   25.8767   37.0945 N   0  0  0  0  0  0  0  0  0  0  0  0
   18.1278   23.8530   37.7265 F   0  0  0  0  0  0  0  0  0  0  0  0
  1  2  1  0
  2  3  2  0
  2  4  1  0
  4  5  2  0
  5  6  1  0
  6  7  2  0
  7  8  1  0
  8  9  2  0
  9 10  1  0
 10 11  2  0
 11 12  1  0
 12 13  2  0
 13 14  1  0
  1 15  1  0
 15 16  2  0
 16 17  1  0
 17 18  2  0
 18 19  1  0
 19 20  1  0
 20 21  1  0
 21 22  1  0
 21 23  1  0
 21 24  1  0
 24 25  1  0
 25 26  2  0
 20 27  1  1
 13  4  1  0
 26 15  1  0
 12  7  1  0
 25 18  1  0
M  END
>  <AAScore>  (1) 
178.386009741617

>  <RootName>  (1) 
./4ZLY/04_DeltaGEst/trajectory_04/rank_00/lead_0100

$$$$
