confid_15
     RDKit          3D

 25 27  0  0  0  0  0  0  0  0999 V2000
   24.4800   26.1000   36.1300 N   0  0  0  0  0  0  0  0  0  0  0  0
   25.2500   26.2500   34.9900 C   0  0  0  0  0  0  0  0  0  0  0  0
   24.7400   25.7600   33.9900 O   0  0  0  0  0  0  0  0  0  0  0  0
   26.5900   26.8900   34.9600 C   0  0  0  0  0  0  0  0  0  0  0  0
   27.0600   27.2400   36.1600 N   0  0  0  0  0  0  0  0  0  0  0  0
   28.3000   27.7100   36.2400 N   0  0  0  0  0  0  0  0  0  0  0  0
   29.0500   27.9600   35.1500 C   0  0  0  0  0  0  0  0  0  0  0  0
   30.3400   28.4900   35.2600 C   0  0  0  0  0  0  0  0  0  0  0  0
   31.1100   28.8200   34.1400 C   0  0  0  0  0  0  0  0  0  0  0  0
   30.5200   28.6700   32.8800 C   0  0  0  0  0  0  0  0  0  0  0  0
   29.2900   28.0200   32.7700 C   0  0  0  0  0  0  0  0  0  0  0  0
   28.5200   27.7100   33.8900 C   0  0  0  0  0  0  0  0  0  0  0  0
   27.2700   27.0800   33.7600 C   0  0  0  0  0  0  0  0  0  0  0  0
   26.7500   26.8800   32.4900 N   0  0  0  0  0  0  0  0  0  0  0  0
   23.4128   25.1427   36.2756 C   0  0  0  0  0  0  0  0  0  0  0  0
   22.1916   25.5059   36.8931 C   0  0  0  0  0  0  0  0  0  0  0  0
   21.8770   27.1778   37.3974 S   0  0  0  0  0  6  0  0  0  0  0  0
   22.5033   28.1311   36.4175 O   0  0  0  0  0  0  0  0  0  0  0  0
   22.4847   27.3964   38.7540 O   0  0  0  0  0  0  0  0  0  0  0  0
   20.1309   27.5644   37.4804 C   0  0  0  0  0  0  0  0  0  0  0  0
   19.4684   27.4327   36.1135 C   0  0  0  0  0  0  0  0  0  0  0  0
   21.2147   24.5200   37.1139 C   0  0  0  0  0  0  0  0  0  0  0  0
   21.4262   23.2036   36.7004 C   0  0  0  0  0  0  0  0  0  0  0  0
   22.6209   22.8500   36.0758 C   0  0  0  0  0  0  0  0  0  0  0  0
   23.6127   23.8099   35.8720 C   0  0  0  0  0  0  0  0  0  0  0  0
  1  2  1  0
  2  3  2  0
  2  4  1  0
  4  5  2  0
  5  6  1  0
  6  7  2  0
  7  8  1  0
  8  9  2  0
  9 10  1  0
 10 11  2  0
 11 12  1  0
 12 13  2  0
 13 14  1  0
  1 15  1  0
 15 16  2  0
 16 17  1  0
 17 18  2  0
 17 19  2  0
 17 20  1  0
 20 21  1  0
 16 22  1  0
 22 23  2  0
 23 24  1  0
 24 25  2  0
 13  4  1  0
 25 15  1  0
 12  7  1  0
M  END
>  <AAScore>  (1) 
715.9682368434347

>  <RootName>  (1) 
./4ZLY/04_DeltaGEst/trajectory_00/rank_00/lead_0328

$$$$
