confid_2
     RDKit          3D

 27 30  0  0  0  0  0  0  0  0999 V2000
   24.6900   26.1200   35.5300 N   0  0  0  0  0  0  0  0  0  0  0  0
   25.6600   25.6700   34.6600 C   0  0  0  0  0  0  0  0  0  0  0  0
   25.2400   25.0100   33.7200 O   0  0  0  0  0  0  0  0  0  0  0  0
   27.0300   26.2200   34.8800 C   0  0  0  0  0  0  0  0  0  0  0  0
   27.3500   26.7300   36.0700 N   0  0  0  0  0  0  0  0  0  0  0  0
   28.5700   27.1800   36.3300 N   0  0  0  0  0  0  0  0  0  0  0  0
   29.5300   27.1100   35.3900 C   0  0  0  0  0  0  0  0  0  0  0  0
   30.8300   27.5700   35.6500 C   0  0  0  0  0  0  0  0  0  0  0  0
   31.8500   27.5400   34.6900 C   0  0  0  0  0  0  0  0  0  0  0  0
   31.5100   27.1200   33.4000 C   0  0  0  0  0  0  0  0  0  0  0  0
   30.2200   26.6300   33.1100 C   0  0  0  0  0  0  0  0  0  0  0  0
   29.2400   26.6600   34.1000 C   0  0  0  0  0  0  0  0  0  0  0  0
   27.9300   26.2600   33.8100 C   0  0  0  0  0  0  0  0  0  0  0  0
   27.5200   25.7100   32.6100 N   0  0  0  0  0  0  0  0  0  0  0  0
   31.1657   28.1002   36.9913 C   0  0  0  0  0  0  0  0  0  0  0  0
   30.5810   29.3095   37.4225 C   0  0  0  0  0  0  0  0  0  0  0  0
   30.9176   29.7964   38.6811 C   0  0  0  0  0  0  0  0  0  0  0  0
   30.4392   31.0399   39.3768 C   0  0  0  0  0  0  0  0  0  0  0  0
   31.1542   31.0021   40.6598 N   0  0  0  0  0  0  0  0  0  0  0  0
   31.9549   29.8231   40.7046 C   0  0  0  0  0  0  0  0  0  0  0  0
   32.6668   29.4738   41.6831 O   0  0  0  0  0  0  0  0  0  0  0  0
   31.7972   29.1037   39.4718 C   0  0  0  0  0  0  0  0  0  0  0  0
   32.3663   27.9373   39.0839 N   0  0  0  0  0  0  0  0  0  0  0  0
   32.0696   27.4203   37.8554 C   0  0  0  0  0  0  0  0  0  0  0  0
   32.7981   25.8871   37.3985 Cl  0  0  0  0  0  0  0  0  0  0  0  0
   30.9874   31.9672   41.7432 C   0  0  0  0  0  0  0  0  0  0  0  0
   32.2503   32.8035   41.9100 C   0  0  0  0  0  0  0  0  0  0  0  0
  1  2  1  0
  2  3  2  0
  2  4  1  0
  4  5  2  0
  5  6  1  0
  6  7  2  0
  7  8  1  0
  8  9  2  0
  9 10  1  0
 10 11  2  0
 11 12  1  0
 12 13  2  0
 13 14  1  0
  8 15  1  0
 15 16  2  0
 16 17  1  0
 17 18  1  0
 18 19  1  0
 19 20  1  0
 20 21  2  0
 20 22  1  0
 22 23  1  0
 23 24  2  0
 24 25  1  0
 19 26  1  0
 26 27  1  0
 13  4  1  0
 24 15  1  0
 12  7  1  0
 22 17  2  0
M  END
>  <AAScore>  (1) 
128.16213815434156

>  <RootName>  (1) 
./4ZLY/04_DeltaGEst/trajectory_02/rank_01/lead_0227

$$$$
