confid_1
     RDKit          3D

 30 33  0  0  0  0  0  0  0  0999 V2000
   24.5700   26.8800   35.5900 N   0  0  0  0  0  0  0  0  0  0  0  0
   25.5000   26.4000   34.6900 C   0  0  0  0  0  0  0  0  0  0  0  0
   25.1700   25.5200   33.9100 O   0  0  0  0  0  0  0  0  0  0  0  0
   26.8400   27.0200   34.7400 C   0  0  0  0  0  0  0  0  0  0  0  0
   27.3800   27.2800   35.9400 N   0  0  0  0  0  0  0  0  0  0  0  0
   28.6200   27.7400   36.0300 N   0  0  0  0  0  0  0  0  0  0  0  0
   29.3800   28.0000   34.9600 C   0  0  0  0  0  0  0  0  0  0  0  0
   30.6700   28.5000   35.1300 C   0  0  0  0  0  0  0  0  0  0  0  0
   31.5400   28.6100   34.0300 C   0  0  0  0  0  0  0  0  0  0  0  0
   31.0900   28.2200   32.7700 C   0  0  0  0  0  0  0  0  0  0  0  0
   29.8000   27.7000   32.6000 C   0  0  0  0  0  0  0  0  0  0  0  0
   28.9600   27.5500   33.7100 C   0  0  0  0  0  0  0  0  0  0  0  0
   27.6600   27.0300   33.5900 C   0  0  0  0  0  0  0  0  0  0  0  0
   27.1600   26.7400   32.3400 N   0  0  0  0  0  0  0  0  0  0  0  0
   33.1588   29.2697   34.2297 S   0  0  0  0  0  6  0  0  0  0  0  0
   34.1078   28.5519   33.3116 O   0  0  0  0  0  0  0  0  0  0  0  0
   33.6184   29.0671   35.6469 O   0  0  0  0  0  0  0  0  0  0  0  0
   33.1263   31.0122   33.8091 C   0  0  1  0  0  0  0  0  0  0  0  0
   32.4069   31.8752   34.8349 C   0  0  0  0  0  0  0  0  0  0  0  0
   33.6274   32.6261   35.1821 N   0  0  0  0  0  0  0  0  0  0  0  0
   34.0593   32.4099   36.5779 C   0  0  0  0  0  0  0  0  0  0  0  0
   33.3505   33.3862   37.5168 C   0  0  0  0  0  0  0  0  0  0  0  0
   31.9892   33.1430   37.5300 F   0  0  0  0  0  0  0  0  0  0  0  0
   33.5765   34.6867   37.1025 F   0  0  0  0  0  0  0  0  0  0  0  0
   33.8441   33.2313   38.7993 F   0  0  0  0  0  0  0  0  0  0  0  0
   34.3792   31.7791   34.2399 C   0  0  2  0  0  0  0  0  0  0  0  0
   35.0823   32.6417   33.1631 C   0  0  0  0  0  0  0  0  0  0  0  0
   35.4844   31.8756   31.9045 C   0  0  0  0  0  0  0  0  0  0  0  0
   34.6022   32.7946   31.0675 C   0  0  0  0  0  0  0  0  0  0  0  0
   34.1985   33.5634   32.3198 C   0  0  0  0  0  0  0  0  0  0  0  0
  1  2  1  0
  2  3  2  0
  2  4  1  0
  4  5  2  0
  5  6  1  0
  6  7  2  0
  7  8  1  0
  8  9  2  0
  9 10  1  0
 10 11  2  0
 11 12  1  0
 12 13  2  0
 13 14  1  0
  9 15  1  0
 15 16  2  0
 15 17  2  0
 18 15  1  1
 18 19  1  0
 19 20  1  0
 20 21  1  0
 21 22  1  0
 22 23  1  0
 22 24  1  0
 22 25  1  0
 20 26  1  0
 26 27  1  6
 27 28  1  0
 28 29  1  0
 29 30  1  0
 13  4  1  0
 26 18  1  0
 30 27  1  0
 12  7  1  0
M  END
>  <AAScore>  (1) 
-5.566544423298629

>  <RootName>  (1) 
./4ZLY/04_DeltaGEst/trajectory_05/rank_01/lead_0146

$$$$
