confid_1
     RDKit          3D

 27 30  0  0  0  0  0  0  0  0999 V2000
   24.5500   26.3900   36.2500 N   0  0  0  0  0  0  0  0  0  0  0  0
   25.6000   26.1300   35.4000 C   0  0  0  0  0  0  0  0  0  0  0  0
   25.4300   25.4300   34.4200 O   0  0  0  0  0  0  0  0  0  0  0  0
   26.9800   26.6300   35.7100 C   0  0  0  0  0  0  0  0  0  0  0  0
   27.3200   26.8200   36.9800 N   0  0  0  0  0  0  0  0  0  0  0  0
   28.4700   27.4000   37.3100 N   0  0  0  0  0  0  0  0  0  0  0  0
   29.4000   27.6300   36.3700 C   0  0  0  0  0  0  0  0  0  0  0  0
   30.6600   28.0500   36.8000 C   0  0  0  0  0  0  0  0  0  0  0  0
   31.5700   28.3600   35.7800 C   0  0  0  0  0  0  0  0  0  0  0  0
   31.3700   28.1000   34.4300 C   0  0  0  0  0  0  0  0  0  0  0  0
   30.1200   27.5900   34.0500 C   0  0  0  0  0  0  0  0  0  0  0  0
   29.1500   27.3400   35.0300 C   0  0  0  0  0  0  0  0  0  0  0  0
   27.8800   26.8900   34.6600 C   0  0  0  0  0  0  0  0  0  0  0  0
   27.4800   26.6100   33.3700 N   0  0  0  0  0  0  0  0  0  0  0  0
   23.2846   25.7144   36.1904 C   0  0  0  0  0  0  0  0  0  0  0  0
   22.1893   26.4191   36.2395 N   0  0  0  0  0  0  0  0  0  0  0  0
   20.8830   25.8277   36.1512 C   0  0  0  0  0  0  0  0  0  0  0  0
   20.7476   24.4965   36.1819 C   0  0  0  0  0  0  0  0  0  0  0  0
   19.5747   23.7695   35.6408 C   0  0  0  0  0  0  0  0  0  0  0  0
   20.0310   22.3917   35.3658 N   0  0  0  0  0  0  0  0  0  0  0  0
   19.2438   21.4079   36.1327 C   0  0  0  0  0  0  0  0  0  0  0  0
   21.5052   22.3692   35.5963 C   0  0  2  0  0  0  0  0  0  0  0  0
   22.0865   21.0112   36.0483 C   0  0  0  0  0  0  0  0  0  0  0  0
   21.8708   23.5768   36.4960 C   0  0  2  0  0  0  0  0  0  0  0  0
   21.8519   23.2668   38.0078 C   0  0  0  0  0  0  0  0  0  0  0  0
   23.1952   24.2300   36.1540 C   0  0  0  0  0  0  0  0  0  0  0  0
   24.2261   23.5240   35.9889 O   0  0  0  0  0  0  0  0  0  0  0  0
  1  2  1  0
  2  3  2  0
  2  4  1  0
  4  5  2  0
  5  6  1  0
  6  7  2  0
  7  8  1  0
  8  9  2  0
  9 10  1  0
 10 11  2  0
 11 12  1  0
 12 13  2  0
 13 14  1  0
  1 15  1  0
 15 16  2  0
 16 17  1  0
 17 18  2  0
 18 19  1  0
 19 20  1  0
 20 21  1  0
 20 22  1  0
 22 23  1  1
 22 24  1  0
 24 25  1  1
 24 26  1  0
 26 27  2  0
 13  4  1  0
 26 15  1  0
 12  7  1  0
 24 18  1  0
M  END
>  <AAScore>  (1) 
4241.504865485335

>  <RootName>  (1) 
./4ZLY/04_DeltaGEst/trajectory_01/rank_00/lead_0427

$$$$
