confid_1
     RDKit          3D

 30 33  0  0  0  0  0  0  0  0999 V2000
   24.5500   26.3900   36.2500 N   0  0  0  0  0  0  0  0  0  0  0  0
   25.6000   26.1300   35.4000 C   0  0  0  0  0  0  0  0  0  0  0  0
   25.4300   25.4300   34.4200 O   0  0  0  0  0  0  0  0  0  0  0  0
   26.9800   26.6300   35.7100 C   0  0  0  0  0  0  0  0  0  0  0  0
   27.3200   26.8200   36.9800 N   0  0  0  0  0  0  0  0  0  0  0  0
   28.4700   27.4000   37.3100 N   0  0  0  0  0  0  0  0  0  0  0  0
   29.4000   27.6300   36.3700 C   0  0  0  0  0  0  0  0  0  0  0  0
   30.6600   28.0500   36.8000 C   0  0  0  0  0  0  0  0  0  0  0  0
   31.5700   28.3600   35.7800 C   0  0  0  0  0  0  0  0  0  0  0  0
   31.3700   28.1000   34.4300 C   0  0  0  0  0  0  0  0  0  0  0  0
   30.1200   27.5900   34.0500 C   0  0  0  0  0  0  0  0  0  0  0  0
   29.1500   27.3400   35.0300 C   0  0  0  0  0  0  0  0  0  0  0  0
   27.8800   26.8900   34.6600 C   0  0  0  0  0  0  0  0  0  0  0  0
   27.4800   26.6100   33.3700 N   0  0  0  0  0  0  0  0  0  0  0  0
   23.1690   26.0517   36.0025 C   0  0  0  0  0  0  0  0  0  0  0  0
   22.8454   25.3576   34.9484 N   0  0  0  0  0  0  0  0  0  0  0  0
   21.5139   24.9891   34.5899 C   0  0  0  0  0  0  0  0  0  0  0  0
   21.0758   23.7201   34.6297 C   0  0  0  0  0  0  0  0  0  0  0  0
   19.7590   23.4081   33.9553 C   0  0  0  0  0  0  0  0  0  0  0  0
   19.4332   21.9731   34.0519 N   0  0  0  0  0  0  0  0  0  0  0  0
   20.5911   21.1697   33.6262 C   0  0  0  0  0  0  0  0  0  0  0  0
   21.6929   21.2730   34.6855 C   0  0  0  0  0  0  0  0  0  0  0  0
   21.8278   22.6364   35.2306 N   0  0  0  0  0  0  0  0  0  0  0  0
   22.5856   22.7768   36.4904 C   0  0  0  0  0  0  0  0  0  0  0  0
   21.6746   22.8346   37.7337 C   0  0  0  0  0  0  0  0  0  0  0  0
   21.1497   24.2158   38.2315 C   0  0  2  0  0  0  0  0  0  0  0  0
   19.7543   24.5760   37.7012 C   0  0  0  0  0  0  0  0  0  0  0  0
   22.1734   25.3928   38.2475 C   0  0  0  0  0  0  0  0  0  0  0  0
   22.1499   26.3943   37.0646 C   0  0  0  0  0  0  0  0  0  0  0  0
   18.2621   21.6646   33.2168 C   0  0  0  0  0  0  0  0  0  0  0  0
  1  2  1  0
  2  3  2  0
  2  4  1  0
  4  5  2  0
  5  6  1  0
  6  7  2  0
  7  8  1  0
  8  9  2  0
  9 10  1  0
 10 11  2  0
 11 12  1  0
 12 13  2  0
 13 14  1  0
  1 15  1  0
 15 16  2  0
 16 17  1  0
 17 18  2  0
 18 19  1  0
 19 20  1  0
 20 21  1  0
 21 22  1  0
 22 23  1  0
 23 24  1  0
 24 25  1  0
 25 26  1  0
 26 27  1  6
 26 28  1  0
 28 29  1  0
 20 30  1  0
 13  4  1  0
 29 15  1  0
 12  7  1  0
 23 18  1  0
M  END
>  <AAScore>  (1) 
8824.822089521635

>  <RootName>  (1) 
./4ZLY/04_DeltaGEst/trajectory_01/rank_00/lead_0447

$$$$
