confid_15
     RDKit          3D

 29 33  0  0  0  0  0  0  0  0999 V2000
   24.6900   26.1200   35.5300 N   0  0  0  0  0  0  0  0  0  0  0  0
   25.6600   25.6700   34.6600 C   0  0  0  0  0  0  0  0  0  0  0  0
   25.2400   25.0100   33.7200 O   0  0  0  0  0  0  0  0  0  0  0  0
   27.0300   26.2200   34.8800 C   0  0  0  0  0  0  0  0  0  0  0  0
   27.3500   26.7300   36.0700 N   0  0  0  0  0  0  0  0  0  0  0  0
   28.5700   27.1800   36.3300 N   0  0  0  0  0  0  0  0  0  0  0  0
   29.5300   27.1100   35.3900 C   0  0  0  0  0  0  0  0  0  0  0  0
   30.8300   27.5700   35.6500 C   0  0  0  0  0  0  0  0  0  0  0  0
   31.8500   27.5400   34.6900 C   0  0  0  0  0  0  0  0  0  0  0  0
   31.5100   27.1200   33.4000 C   0  0  0  0  0  0  0  0  0  0  0  0
   30.2200   26.6300   33.1100 C   0  0  0  0  0  0  0  0  0  0  0  0
   29.2400   26.6600   34.1000 C   0  0  0  0  0  0  0  0  0  0  0  0
   27.9300   26.2600   33.8100 C   0  0  0  0  0  0  0  0  0  0  0  0
   27.5200   25.7100   32.6100 N   0  0  0  0  0  0  0  0  0  0  0  0
   23.2908   26.0812   35.2223 C   0  0  0  0  0  0  0  0  0  0  0  0
   22.4603   25.3230   35.8600 N   0  0  0  0  0  0  0  0  0  0  0  0
   21.1848   25.4998   35.2398 C   0  0  0  0  0  0  0  0  0  0  0  0
   21.2432   26.3661   34.2328 C   0  0  0  0  0  0  0  0  0  0  0  0
   20.0848   26.7807   33.3671 C   0  0  0  0  0  0  0  0  0  0  0  0
   20.2446   26.2905   31.9146 C   0  0  0  0  0  0  0  0  0  0  0  0
   20.2198   27.6871   30.7306 S   0  0  0  0  0  0  0  0  0  0  0  0
   21.9779   28.0277   30.8603 C   0  0  0  0  0  0  0  0  0  0  0  0
   22.5410   28.8429   32.1154 S   0  0  2  0  0  6  0  0  0  0  0  0
   21.5971   29.8954   32.6261 O   0  0  0  0  0  0  0  0  0  0  0  0
   24.1465   29.4201   32.0753 N   0  0  0  0  0  0  0  0  0  0  0  0
   24.8319   29.0459   30.8299 C   0  0  0  0  0  0  0  0  0  0  0  0
   24.4715   28.5001   33.1715 C   0  0  0  0  0  0  0  0  0  0  0  0
   23.1288   27.7873   33.3865 C   0  0  0  0  0  0  0  0  0  0  0  0
   22.6255   26.8270   34.1605 C   0  0  0  0  0  0  0  0  0  0  0  0
  1  2  1  0
  2  3  2  0
  2  4  1  0
  4  5  2  0
  5  6  1  0
  6  7  2  0
  7  8  1  0
  8  9  2  0
  9 10  1  0
 10 11  2  0
 11 12  1  0
 12 13  2  0
 13 14  1  0
  1 15  1  0
 15 16  2  0
 16 17  1  0
 17 18  2  0
 18 19  1  0
 19 20  1  0
 20 21  1  0
 21 22  1  0
 22 23  2  0
 23 24  2  0
 23 25  1  6
 25 26  1  0
 25 27  1  0
 27 28  1  0
 28 29  2  0
 13  4  1  0
 29 15  1  0
 12  7  1  0
 29 18  1  0
 28 23  1  0
M  END
>  <AAScore>  (1) 
6323.665740782021

>  <RootName>  (1) 
./4ZLY/04_DeltaGEst/trajectory_02/rank_00/lead_0390

$$$$
