confid_19
     RDKit          3D

 27 29  0  0  0  0  0  0  0  0999 V2000
   24.4800   26.1000   36.1300 N   0  0  0  0  0  0  0  0  0  0  0  0
   25.2500   26.2500   34.9900 C   0  0  0  0  0  0  0  0  0  0  0  0
   24.7400   25.7600   33.9900 O   0  0  0  0  0  0  0  0  0  0  0  0
   26.5900   26.8900   34.9600 C   0  0  0  0  0  0  0  0  0  0  0  0
   27.0600   27.2400   36.1600 N   0  0  0  0  0  0  0  0  0  0  0  0
   28.3000   27.7100   36.2400 N   0  0  0  0  0  0  0  0  0  0  0  0
   29.0500   27.9600   35.1500 C   0  0  0  0  0  0  0  0  0  0  0  0
   30.3400   28.4900   35.2600 C   0  0  0  0  0  0  0  0  0  0  0  0
   31.1100   28.8200   34.1400 C   0  0  0  0  0  0  0  0  0  0  0  0
   30.5200   28.6700   32.8800 C   0  0  0  0  0  0  0  0  0  0  0  0
   29.2900   28.0200   32.7700 C   0  0  0  0  0  0  0  0  0  0  0  0
   28.5200   27.7100   33.8900 C   0  0  0  0  0  0  0  0  0  0  0  0
   27.2700   27.0800   33.7600 C   0  0  0  0  0  0  0  0  0  0  0  0
   26.7500   26.8800   32.4900 N   0  0  0  0  0  0  0  0  0  0  0  0
   23.0386   26.0773   36.1580 C   0  0  0  0  0  0  0  0  0  0  0  0
   22.2713   26.7571   35.1929 C   0  0  0  0  0  0  0  0  0  0  0  0
   20.8680   26.7477   35.2568 C   0  0  0  0  0  0  0  0  0  0  0  0
   20.0993   27.4330   34.2549 N   0  0  0  0  0  0  0  0  0  0  0  0
   19.1569   26.6879   33.4218 C   0  0  0  0  0  0  0  0  0  0  0  0
   20.4041   29.1101   33.9109 S   0  0  0  0  0  6  0  0  0  0  0  0
   21.3403   29.6861   34.9372 O   0  0  0  0  0  0  0  0  0  0  0  0
   21.0245   29.2397   32.5480 O   0  0  0  0  0  0  0  0  0  0  0  0
   18.8761   30.0207   33.9708 C   0  0  0  0  0  0  0  0  0  0  0  0
   20.2301   26.0602   36.3035 C   0  0  0  0  0  0  0  0  0  0  0  0
   20.9887   25.3994   37.2726 C   0  0  0  0  0  0  0  0  0  0  0  0
   22.3836   25.4123   37.2045 C   0  0  0  0  0  0  0  0  0  0  0  0
   18.8779   26.0631   36.4115 F   0  0  0  0  0  0  0  0  0  0  0  0
  1  2  1  0
  2  3  2  0
  2  4  1  0
  4  5  2  0
  5  6  1  0
  6  7  2  0
  7  8  1  0
  8  9  2  0
  9 10  1  0
 10 11  2  0
 11 12  1  0
 12 13  2  0
 13 14  1  0
  1 15  1  0
 15 16  2  0
 16 17  1  0
 17 18  1  0
 18 19  1  0
 18 20  1  0
 20 21  2  0
 20 22  2  0
 20 23  1  0
 17 24  2  0
 24 25  1  0
 25 26  2  0
 24 27  1  0
 13  4  1  0
 26 15  1  0
 12  7  1  0
M  END
>  <AAScore>  (1) 
503.5956895961894

>  <RootName>  (1) 
./4ZLY/04_DeltaGEst/trajectory_00/rank_00/lead_0345

$$$$
