confid_2
     RDKit          3D

 29 32  0  0  0  0  0  0  0  0999 V2000
   24.4800   26.1000   36.1300 N   0  0  0  0  0  0  0  0  0  0  0  0
   25.2500   26.2500   34.9900 C   0  0  0  0  0  0  0  0  0  0  0  0
   24.7400   25.7600   33.9900 O   0  0  0  0  0  0  0  0  0  0  0  0
   26.5900   26.8900   34.9600 C   0  0  0  0  0  0  0  0  0  0  0  0
   27.0600   27.2400   36.1600 N   0  0  0  0  0  0  0  0  0  0  0  0
   28.3000   27.7100   36.2400 N   0  0  0  0  0  0  0  0  0  0  0  0
   29.0500   27.9600   35.1500 C   0  0  0  0  0  0  0  0  0  0  0  0
   30.3400   28.4900   35.2600 C   0  0  0  0  0  0  0  0  0  0  0  0
   31.1100   28.8200   34.1400 C   0  0  0  0  0  0  0  0  0  0  0  0
   30.5200   28.6700   32.8800 C   0  0  0  0  0  0  0  0  0  0  0  0
   29.2900   28.0200   32.7700 C   0  0  0  0  0  0  0  0  0  0  0  0
   28.5200   27.7100   33.8900 C   0  0  0  0  0  0  0  0  0  0  0  0
   27.2700   27.0800   33.7600 C   0  0  0  0  0  0  0  0  0  0  0  0
   26.7500   26.8800   32.4900 N   0  0  0  0  0  0  0  0  0  0  0  0
   23.4301   25.1305   36.2833 C   0  0  0  0  0  0  0  0  0  0  0  0
   22.3152   25.4207   36.8663 N   0  0  0  0  0  0  0  0  0  0  0  0
   21.5121   24.2448   36.8326 C   0  0  0  0  0  0  0  0  0  0  0  0
   22.1341   23.2311   36.2373 C   0  0  0  0  0  0  0  0  0  0  0  0
   21.5351   21.8558   36.0998 C   0  0  0  0  0  0  0  0  0  0  0  0
   20.8964   21.6874   34.7735 N   0  0  0  0  0  0  0  0  0  0  0  0
   19.5749   22.3400   34.7401 C   0  0  0  0  0  0  0  0  0  0  0  0
   20.7769   20.2553   34.4117 C   0  0  0  0  0  0  0  0  0  0  0  0
   21.9333   19.8343   33.4999 C   0  0  0  0  0  0  0  0  0  0  0  0
   23.1719   19.9759   34.1664 O   0  0  0  0  0  0  0  0  0  0  0  0
   23.8051   21.1940   33.8234 C   0  0  0  0  0  0  0  0  0  0  0  0
   24.6084   21.6701   34.9931 C   0  0  0  0  0  0  0  0  0  0  0  0
   25.4440   20.8916   35.5245 O   0  0  0  0  0  0  0  0  0  0  0  0
   24.5654   23.0716   35.4315 C   0  0  0  0  0  0  0  0  0  0  0  0
   23.4671   23.7283   35.8471 C   0  0  0  0  0  0  0  0  0  0  0  0
  1  2  1  0
  2  3  2  0
  2  4  1  0
  4  5  2  0
  5  6  1  0
  6  7  2  0
  7  8  1  0
  8  9  2  0
  9 10  1  0
 10 11  2  0
 11 12  1  0
 12 13  2  0
 13 14  1  0
  1 15  1  0
 15 16  2  0
 16 17  1  0
 17 18  2  0
 18 19  1  0
 19 20  1  0
 20 21  1  0
 20 22  1  0
 22 23  1  0
 23 24  1  0
 24 25  1  0
 25 26  1  0
 26 27  2  0
 26 28  1  0
 28 29  2  0
 13  4  1  0
 29 15  1  0
 12  7  1  0
 29 18  1  0
M  END
>  <AAScore>  (1) 
1187.3568597846763

>  <RootName>  (1) 
./4ZLY/04_DeltaGEst/trajectory_00/rank_01/lead_0354

$$$$
