confid_15
     RDKit          3D

 28 31  0  0  0  0  0  0  0  0999 V2000
   25.3300   26.2600   34.7600 N   0  0  0  0  0  0  0  0  0  0  0  0
   26.1200   25.9200   33.6900 C   0  0  0  0  0  0  0  0  0  0  0  0
   25.6300   25.1100   32.9400 O   0  0  0  0  0  0  0  0  0  0  0  0
   27.5200   26.3800   33.4600 C   0  0  0  0  0  0  0  0  0  0  0  0
   28.1600   26.6300   34.6100 N   0  0  0  0  0  0  0  0  0  0  0  0
   29.4800   26.8500   34.5700 N   0  0  0  0  0  0  0  0  0  0  0  0
   30.1900   26.7800   33.4400 C   0  0  0  0  0  0  0  0  0  0  0  0
   31.5600   27.0500   33.5000 C   0  0  0  0  0  0  0  0  0  0  0  0
   32.2700   27.2400   32.3100 C   0  0  0  0  0  0  0  0  0  0  0  0
   31.6100   27.2500   31.0800 C   0  0  0  0  0  0  0  0  0  0  0  0
   30.2700   26.8700   31.0600 C   0  0  0  0  0  0  0  0  0  0  0  0
   29.5100   26.6900   32.2300 C   0  0  0  0  0  0  0  0  0  0  0  0
   28.1400   26.4100   32.2000 C   0  0  0  0  0  0  0  0  0  0  0  0
   27.4300   26.1300   31.0500 N   0  0  0  0  0  0  0  0  0  0  0  0
   26.5348   27.1353   30.4735 C   0  0  0  0  0  0  0  0  0  0  0  0
   26.7489   27.1908   28.9613 C   0  0  0  0  0  0  0  0  0  0  0  0
   26.8702   25.8338   28.4052 N   0  0  0  0  0  0  0  0  0  0  0  0
   26.8633   25.6665   26.9764 C   0  0  0  0  0  0  0  0  0  0  0  0
   26.0663   24.8398   26.4555 O   0  0  0  0  0  0  0  0  0  0  0  0
   27.7812   26.4376   26.1097 C   0  0  0  0  0  0  0  0  0  0  0  0
   27.4071   26.7655   24.7950 C   0  0  0  0  0  0  0  0  0  0  0  0
   28.2789   27.4837   23.9706 C   0  0  0  0  0  0  0  0  0  0  0  0
   29.5355   27.8708   24.4464 C   0  0  0  0  0  0  0  0  0  0  0  0
   30.6282   28.7704   23.4102 Cl  0  0  0  0  0  0  0  0  0  0  0  0
   29.9225   27.5339   25.7470 C   0  0  0  0  0  0  0  0  0  0  0  0
   29.0531   26.8164   26.5738 C   0  0  0  0  0  0  0  0  0  0  0  0
   26.6727   24.7135   29.2460 N   0  0  0  0  0  0  0  0  0  0  0  0
   27.5783   24.8228   30.3957 C   0  0  0  0  0  0  0  0  0  0  0  0
  1  2  1  0
  2  3  2  0
  2  4  1  0
  4  5  2  0
  5  6  1  0
  6  7  2  0
  7  8  1  0
  8  9  2  0
  9 10  1  0
 10 11  2  0
 11 12  1  0
 12 13  2  0
 13 14  1  0
 14 15  1  0
 15 16  1  0
 16 17  1  0
 17 18  1  0
 18 19  2  0
 18 20  1  0
 20 21  2  0
 21 22  1  0
 22 23  2  0
 23 24  1  0
 23 25  1  0
 25 26  2  0
 17 27  1  0
 27 28  1  0
 13  4  1  0
 28 14  1  0
 12  7  1  0
 26 20  1  0
M  END
>  <AAScore>  (1) 
-2.8401438132050445

>  <RootName>  (1) 
./4ZLY/04_DeltaGEst/trajectory_03/rank_01/lead_0346

$$$$
