confid_2
     RDKit          3D

 25 28  0  0  0  0  0  0  0  0999 V2000
   24.6900   26.1200   35.5300 N   0  0  0  0  0  0  0  0  0  0  0  0
   25.6600   25.6700   34.6600 C   0  0  0  0  0  0  0  0  0  0  0  0
   25.2400   25.0100   33.7200 O   0  0  0  0  0  0  0  0  0  0  0  0
   27.0300   26.2200   34.8800 C   0  0  0  0  0  0  0  0  0  0  0  0
   27.3500   26.7300   36.0700 N   0  0  0  0  0  0  0  0  0  0  0  0
   28.5700   27.1800   36.3300 N   0  0  0  0  0  0  0  0  0  0  0  0
   29.5300   27.1100   35.3900 C   0  0  0  0  0  0  0  0  0  0  0  0
   30.8300   27.5700   35.6500 C   0  0  0  0  0  0  0  0  0  0  0  0
   31.8500   27.5400   34.6900 C   0  0  0  0  0  0  0  0  0  0  0  0
   31.5100   27.1200   33.4000 C   0  0  0  0  0  0  0  0  0  0  0  0
   30.2200   26.6300   33.1100 C   0  0  0  0  0  0  0  0  0  0  0  0
   29.2400   26.6600   34.1000 C   0  0  0  0  0  0  0  0  0  0  0  0
   27.9300   26.2600   33.8100 C   0  0  0  0  0  0  0  0  0  0  0  0
   27.5200   25.7100   32.6100 N   0  0  0  0  0  0  0  0  0  0  0  0
   23.3497   26.4668   35.1418 C   0  0  0  0  0  0  0  0  0  0  0  0
   22.3039   26.6816   36.0148 C   0  0  0  0  0  0  0  0  0  0  0  0
   21.2093   27.0511   35.3208 N   0  0  0  0  0  0  0  0  0  0  0  0
   19.8789   27.2478   35.9057 C   0  0  0  0  0  0  0  0  0  0  0  0
   19.0529   28.2454   35.0994 C   0  0  0  0  0  0  0  0  0  0  0  0
   18.9835   27.7122   33.4067 S   0  0  0  0  0  6  0  0  0  0  0  0
   18.2041   26.4311   33.3051 O   0  0  0  0  0  0  0  0  0  0  0  0
   18.3289   28.7680   32.5614 O   0  0  0  0  0  0  0  0  0  0  0  0
   20.6588   27.4474   32.8649 C   0  0  0  0  0  0  0  0  0  0  0  0
   21.5519   27.0506   34.0073 C   0  0  0  0  0  0  0  0  0  0  0  0
   22.8853   26.7141   33.8614 C   0  0  0  0  0  0  0  0  0  0  0  0
  1  2  1  0
  2  3  2  0
  2  4  1  0
  4  5  2  0
  5  6  1  0
  6  7  2  0
  7  8  1  0
  8  9  2  0
  9 10  1  0
 10 11  2  0
 11 12  1  0
 12 13  2  0
 13 14  1  0
  1 15  1  0
 15 16  2  0
 16 17  1  0
 17 18  1  0
 18 19  1  0
 19 20  1  0
 20 21  2  0
 20 22  2  0
 20 23  1  0
 23 24  1  0
 24 25  2  0
 13  4  1  0
 25 15  1  0
 12  7  1  0
 24 17  1  0
M  END
>  <AAScore>  (1) 
1264.2104502726213

>  <RootName>  (1) 
./4ZLY/04_DeltaGEst/trajectory_02/rank_00/lead_0407

$$$$
