confid_16
     RDKit          3D

 29 32  0  0  0  0  0  0  0  0999 V2000
   24.2000   26.2400   35.6900 N   0  0  0  0  0  0  0  0  0  0  0  0
   24.8500   26.2800   34.4800 C   0  0  0  0  0  0  0  0  0  0  0  0
   24.3100   25.7400   33.5400 O   0  0  0  0  0  0  0  0  0  0  0  0
   26.1800   26.9700   34.4700 C   0  0  0  0  0  0  0  0  0  0  0  0
   26.6500   27.6000   35.5500 N   0  0  0  0  0  0  0  0  0  0  0  0
   27.7900   28.2700   35.6200 N   0  0  0  0  0  0  0  0  0  0  0  0
   28.5400   28.3000   34.5100 C   0  0  0  0  0  0  0  0  0  0  0  0
   29.7700   28.9400   34.5600 C   0  0  0  0  0  0  0  0  0  0  0  0
   30.7000   28.8900   33.5000 C   0  0  0  0  0  0  0  0  0  0  0  0
   30.3700   28.1400   32.3700 C   0  0  0  0  0  0  0  0  0  0  0  0
   29.1200   27.5200   32.2800 C   0  0  0  0  0  0  0  0  0  0  0  0
   28.2100   27.6100   33.3300 C   0  0  0  0  0  0  0  0  0  0  0  0
   26.9700   26.9700   33.3100 C   0  0  0  0  0  0  0  0  0  0  0  0
   26.5300   26.2400   32.2200 N   0  0  0  0  0  0  0  0  0  0  0  0
   23.2189   25.2543   36.0607 C   0  0  0  0  0  0  0  0  0  0  0  0
   22.2376   25.6001   36.9348 N   0  0  0  0  0  0  0  0  0  0  0  0
   21.2828   24.7233   37.3387 C   0  0  0  0  0  0  0  0  0  0  0  0
   21.2760   23.4031   36.8606 C   0  0  0  0  0  0  0  0  0  0  0  0
   20.2062   22.4447   37.3635 C   0  0  0  0  0  0  0  0  0  0  0  0
   19.5587   21.5259   36.2980 C   0  0  0  0  0  0  0  0  0  0  0  0
   19.9369   21.8935   34.9269 N   0  0  0  0  0  0  0  0  0  0  0  0
   19.0943   22.7872   34.1705 C   0  0  0  0  0  0  0  0  0  0  0  0
   18.3706   23.6220   34.7803 O   0  0  0  0  0  0  0  0  0  0  0  0
   19.0977   22.7781   32.6630 C   0  0  0  0  0  0  0  0  0  0  0  0
   17.7050   23.0222   32.0867 C   0  0  0  0  0  0  0  0  0  0  0  0
   21.2247   21.4171   34.3934 C   0  0  0  0  0  0  0  0  0  0  0  0
   22.3546   21.6033   35.4154 C   0  0  0  0  0  0  0  0  0  0  0  0
   22.3180   22.9981   35.9905 C   0  0  0  0  0  0  0  0  0  0  0  0
   23.2828   23.9342   35.5877 C   0  0  0  0  0  0  0  0  0  0  0  0
  1  2  1  0
  2  3  2  0
  2  4  1  0
  4  5  2  0
  5  6  1  0
  6  7  2  0
  7  8  1  0
  8  9  2  0
  9 10  1  0
 10 11  2  0
 11 12  1  0
 12 13  2  0
 13 14  1  0
  1 15  1  0
 15 16  2  0
 16 17  1  0
 17 18  2  0
 18 19  1  0
 19 20  1  0
 20 21  1  0
 21 22  1  0
 22 23  2  0
 22 24  1  0
 24 25  1  0
 21 26  1  0
 26 27  1  0
 27 28  1  0
 28 29  2  0
 13  4  1  0
 29 15  1  0
 12  7  1  0
 28 18  1  0
M  END
>  <AAScore>  (1) 
1824.686007207192

>  <RootName>  (1) 
./4ZLY/04_DeltaGEst/trajectory_04/rank_00/lead_0275

$$$$
