confid_1
     RDKit          3D

 26 28  0  0  0  0  0  0  0  0999 V2000
   24.5700   26.8800   35.5900 N   0  0  0  0  0  0  0  0  0  0  0  0
   25.5000   26.4000   34.6900 C   0  0  0  0  0  0  0  0  0  0  0  0
   25.1700   25.5200   33.9100 O   0  0  0  0  0  0  0  0  0  0  0  0
   26.8400   27.0200   34.7400 C   0  0  0  0  0  0  0  0  0  0  0  0
   27.3800   27.2800   35.9400 N   0  0  0  0  0  0  0  0  0  0  0  0
   28.6200   27.7400   36.0300 N   0  0  0  0  0  0  0  0  0  0  0  0
   29.3800   28.0000   34.9600 C   0  0  0  0  0  0  0  0  0  0  0  0
   30.6700   28.5000   35.1300 C   0  0  0  0  0  0  0  0  0  0  0  0
   31.5400   28.6100   34.0300 C   0  0  0  0  0  0  0  0  0  0  0  0
   31.0900   28.2200   32.7700 C   0  0  0  0  0  0  0  0  0  0  0  0
   29.8000   27.7000   32.6000 C   0  0  0  0  0  0  0  0  0  0  0  0
   28.9600   27.5500   33.7100 C   0  0  0  0  0  0  0  0  0  0  0  0
   27.6600   27.0300   33.5900 C   0  0  0  0  0  0  0  0  0  0  0  0
   27.1600   26.7400   32.3400 N   0  0  0  0  0  0  0  0  0  0  0  0
   33.1617   29.2711   34.2211 S   0  0  0  0  0  6  0  0  0  0  0  0
   34.1317   28.3754   33.5022 O   0  0  0  0  0  0  0  0  0  0  0  0
   33.5275   29.3026   35.6789 O   0  0  0  0  0  0  0  0  0  0  0  0
   33.2089   30.9342   33.5220 C   0  0  1  0  0  0  0  0  0  0  0  0
   32.2957   31.9115   34.3321 C   0  0  1  0  0  0  0  0  0  0  0  0
   32.9985   32.5956   35.5340 C   0  0  0  0  0  0  0  0  0  0  0  0
   34.4394   33.0637   35.2494 C   0  0  1  0  0  0  0  0  0  0  0  0
   35.0873   33.6027   36.5305 C   0  0  0  0  0  0  0  0  0  0  0  0
   35.2760   31.9182   34.6702 C   0  0  0  0  0  0  0  0  0  0  0  0
   34.6657   31.4210   33.3606 C   0  0  0  0  0  0  0  0  0  0  0  0
   31.4609   32.8777   33.4491 C   0  0  0  0  0  0  0  0  0  0  0  0
   32.2303   34.0094   32.7728 C   0  0  0  0  0  0  0  0  0  0  0  0
  1  2  1  0
  2  3  2  0
  2  4  1  0
  4  5  2  0
  5  6  1  0
  6  7  2  0
  7  8  1  0
  8  9  2  0
  9 10  1  0
 10 11  2  0
 11 12  1  0
 12 13  2  0
 13 14  1  0
  9 15  1  0
 15 16  2  0
 15 17  2  0
 18 15  1  1
 18 19  1  0
 19 20  1  0
 20 21  1  0
 21 22  1  1
 21 23  1  0
 23 24  1  0
 19 25  1  6
 25 26  1  0
 13  4  1  0
 24 18  1  0
 12  7  1  0
M  END
>  <AAScore>  (1) 
-5.739303692942735

>  <RootName>  (1) 
./4ZLY/04_DeltaGEst/trajectory_05/rank_01/lead_0467

$$$$
