confid_19
     RDKit          3D

 28 31  0  0  0  0  0  0  0  0999 V2000
   24.2000   26.2400   35.6900 N   0  0  0  0  0  0  0  0  0  0  0  0
   24.8500   26.2800   34.4800 C   0  0  0  0  0  0  0  0  0  0  0  0
   24.3100   25.7400   33.5400 O   0  0  0  0  0  0  0  0  0  0  0  0
   26.1800   26.9700   34.4700 C   0  0  0  0  0  0  0  0  0  0  0  0
   26.6500   27.6000   35.5500 N   0  0  0  0  0  0  0  0  0  0  0  0
   27.7900   28.2700   35.6200 N   0  0  0  0  0  0  0  0  0  0  0  0
   28.5400   28.3000   34.5100 C   0  0  0  0  0  0  0  0  0  0  0  0
   29.7700   28.9400   34.5600 C   0  0  0  0  0  0  0  0  0  0  0  0
   30.7000   28.8900   33.5000 C   0  0  0  0  0  0  0  0  0  0  0  0
   30.3700   28.1400   32.3700 C   0  0  0  0  0  0  0  0  0  0  0  0
   29.1200   27.5200   32.2800 C   0  0  0  0  0  0  0  0  0  0  0  0
   28.2100   27.6100   33.3300 C   0  0  0  0  0  0  0  0  0  0  0  0
   26.9700   26.9700   33.3100 C   0  0  0  0  0  0  0  0  0  0  0  0
   26.5300   26.2400   32.2200 N   0  0  0  0  0  0  0  0  0  0  0  0
   30.1472   29.6538   35.7503 N   0  0  0  0  0  0  0  0  0  0  0  0
   30.5014   29.0064   37.0134 C   0  0  0  0  0  0  0  0  0  0  0  0
   31.2362   30.0802   37.8535 C   0  0  0  0  0  0  0  0  0  0  0  0
   31.2848   31.2744   36.9505 C   0  0  0  0  0  0  0  0  0  0  0  0
   31.9115   32.5229   37.1309 C   0  0  0  0  0  0  0  0  0  0  0  0
   32.5788   32.8604   38.4601 C   0  0  0  0  0  0  0  0  0  0  0  0
   31.6932   33.6327   39.4738 C   0  0  0  0  0  0  0  0  0  0  0  0
   30.4833   32.8200   39.9460 C   0  0  0  0  0  0  0  0  0  0  0  0
   31.2473   35.0050   38.9625 C   0  0  0  0  0  0  0  0  0  0  0  0
   31.9188   33.3946   35.9979 C   0  0  0  0  0  0  0  0  0  0  0  0
   31.2653   33.0157   34.8572 N   0  0  0  0  0  0  0  0  0  0  0  0
   30.6567   31.8344   34.7392 N   0  0  0  0  0  0  0  0  0  0  0  0
   30.6747   30.9662   35.7742 C   0  0  0  0  0  0  0  0  0  0  0  0
   32.6115   34.7289   35.9678 C   0  0  0  0  0  0  0  0  0  0  0  0
  1  2  1  0
  2  3  2  0
  2  4  1  0
  4  5  2  0
  5  6  1  0
  6  7  2  0
  7  8  1  0
  8  9  2  0
  9 10  1  0
 10 11  2  0
 11 12  1  0
 12 13  2  0
 13 14  1  0
  8 15  1  0
 15 16  1  0
 16 17  1  0
 17 18  1  0
 18 19  2  0
 19 20  1  0
 20 21  1  0
 21 22  1  0
 21 23  1  0
 19 24  1  0
 24 25  2  0
 25 26  1  0
 26 27  2  0
 24 28  1  0
 13  4  1  0
 27 15  1  0
 12  7  1  0
 27 18  1  0
M  END
>  <AAScore>  (1) 
-8.830748465872185

>  <RootName>  (1) 
./4ZLY/04_DeltaGEst/trajectory_04/rank_01/lead_0335

$$$$
