confid_0
     RDKit          3D

 30 33  0  0  0  0  0  0  0  0999 V2000
   24.5700   26.8800   35.5900 N   0  0  0  0  0  0  0  0  0  0  0  0
   25.5000   26.4000   34.6900 C   0  0  0  0  0  0  0  0  0  0  0  0
   25.1700   25.5200   33.9100 O   0  0  0  0  0  0  0  0  0  0  0  0
   26.8400   27.0200   34.7400 C   0  0  0  0  0  0  0  0  0  0  0  0
   27.3800   27.2800   35.9400 N   0  0  0  0  0  0  0  0  0  0  0  0
   28.6200   27.7400   36.0300 N   0  0  0  0  0  0  0  0  0  0  0  0
   29.3800   28.0000   34.9600 C   0  0  0  0  0  0  0  0  0  0  0  0
   30.6700   28.5000   35.1300 C   0  0  0  0  0  0  0  0  0  0  0  0
   31.5400   28.6100   34.0300 C   0  0  0  0  0  0  0  0  0  0  0  0
   31.0900   28.2200   32.7700 C   0  0  0  0  0  0  0  0  0  0  0  0
   29.8000   27.7000   32.6000 C   0  0  0  0  0  0  0  0  0  0  0  0
   28.9600   27.5500   33.7100 C   0  0  0  0  0  0  0  0  0  0  0  0
   27.6600   27.0300   33.5900 C   0  0  0  0  0  0  0  0  0  0  0  0
   27.1600   26.7400   32.3400 N   0  0  0  0  0  0  0  0  0  0  0  0
   33.1800   29.2221   34.2291 S   0  0  0  0  0  6  0  0  0  0  0  0
   34.1433   28.1011   33.9478 O   0  0  0  0  0  0  0  0  0  0  0  0
   33.3825   29.6817   35.6440 O   0  0  0  0  0  0  0  0  0  0  0  0
   33.5116   30.5785   33.0860 C   0  0  0  0  0  0  0  0  0  0  0  0
   32.3506   31.5874   33.0230 C   0  0  0  0  0  0  0  0  0  0  0  0
   32.2278   32.4488   34.2991 C   0  0  0  0  0  0  0  0  0  0  0  0
   33.4785   32.4947   35.0927 N   0  0  0  0  0  0  0  0  0  0  0  0
   33.4484   33.5826   36.0978 C   0  0  0  0  0  0  0  0  0  0  0  0
   33.7323   33.0431   37.5143 C   0  0  0  0  0  0  0  0  0  0  0  0
   35.1049   32.3504   37.6178 C   0  0  0  0  0  0  0  0  0  0  0  0
   35.4455   31.9803   39.0765 C   0  0  0  0  0  0  0  0  0  0  0  0
   34.2040   31.6838   39.9414 C   0  0  0  0  0  0  0  0  0  0  0  0
   33.0537   31.1198   39.1023 C   0  0  0  0  0  0  0  0  0  0  0  0
   32.5943   32.1155   38.0183 C   0  0  0  0  0  0  0  0  0  0  0  0
   34.6583   32.5906   34.2118 C   0  0  0  0  0  0  0  0  0  0  0  0
   34.8460   31.2848   33.4174 C   0  0  0  0  0  0  0  0  0  0  0  0
  1  2  1  0
  2  3  2  0
  2  4  1  0
  4  5  2  0
  5  6  1  0
  6  7  2  0
  7  8  1  0
  8  9  2  0
  9 10  1  0
 10 11  2  0
 11 12  1  0
 12 13  2  0
 13 14  1  0
  9 15  1  0
 15 16  2  0
 15 17  2  0
 15 18  1  0
 18 19  1  0
 19 20  1  0
 20 21  1  0
 21 22  1  0
 22 23  1  0
 23 24  1  0
 24 25  1  0
 25 26  1  0
 26 27  1  0
 27 28  1  0
 21 29  1  0
 29 30  1  0
 13  4  1  0
 30 18  1  0
 12  7  1  0
 28 23  1  0
M  END
>  <AAScore>  (1) 
-3.6907233666591046

>  <RootName>  (1) 
./4ZLY/04_DeltaGEst/trajectory_05/rank_01/lead_0481

$$$$
