confid_0
     RDKit          3D

 32 36  0  0  0  0  0  0  0  0999 V2000
   25.3300   26.2600   34.7600 N   0  0  0  0  0  0  0  0  0  0  0  0
   26.1200   25.9200   33.6900 C   0  0  0  0  0  0  0  0  0  0  0  0
   25.6300   25.1100   32.9400 O   0  0  0  0  0  0  0  0  0  0  0  0
   27.5200   26.3800   33.4600 C   0  0  0  0  0  0  0  0  0  0  0  0
   28.1600   26.6300   34.6100 N   0  0  0  0  0  0  0  0  0  0  0  0
   29.4800   26.8500   34.5700 N   0  0  0  0  0  0  0  0  0  0  0  0
   30.1900   26.7800   33.4400 C   0  0  0  0  0  0  0  0  0  0  0  0
   31.5600   27.0500   33.5000 C   0  0  0  0  0  0  0  0  0  0  0  0
   32.2700   27.2400   32.3100 C   0  0  0  0  0  0  0  0  0  0  0  0
   31.6100   27.2500   31.0800 C   0  0  0  0  0  0  0  0  0  0  0  0
   30.2700   26.8700   31.0600 C   0  0  0  0  0  0  0  0  0  0  0  0
   29.5100   26.6900   32.2300 C   0  0  0  0  0  0  0  0  0  0  0  0
   28.1400   26.4100   32.2000 C   0  0  0  0  0  0  0  0  0  0  0  0
   27.4300   26.1300   31.0500 N   0  0  0  0  0  0  0  0  0  0  0  0
   27.6760   24.9129   30.2856 C   0  0  0  0  0  0  0  0  0  0  0  0
   27.7022   25.1678   28.7591 C   0  0  0  0  0  0  0  0  0  0  0  0
   27.3651   26.5443   28.3132 N   0  0  0  0  0  0  0  0  0  0  0  0
   27.6011   26.9009   26.9206 C   0  0  0  0  0  0  0  0  0  0  0  0
   27.8526   28.2310   26.5456 C   0  0  0  0  0  0  0  0  0  0  0  0
   28.0870   28.5731   25.2153 C   0  0  0  0  0  0  0  0  0  0  0  0
   28.3021   29.8841   24.9261 F   0  0  0  0  0  0  0  0  0  0  0  0
   28.1011   27.5912   24.2004 C   0  0  0  0  0  0  0  0  0  0  0  0
   27.8362   26.2334   24.5635 C   0  0  0  0  0  0  0  0  0  0  0  0
   27.5861   25.9233   25.9076 C   0  0  0  0  0  0  0  0  0  0  0  0
   27.7707   25.1324   23.6803 O   0  0  0  0  0  0  0  0  0  0  0  0
   28.2308   25.0352   22.3342 C   0  0  0  0  0  0  0  0  0  0  0  0
   27.2599   25.6957   21.3434 C   0  0  0  0  0  0  0  0  0  0  0  0
   26.4768   26.6961   21.9686 O   0  0  0  0  0  0  0  0  0  0  0  0
   27.1054   27.9601   21.8963 C   0  0  0  0  0  0  0  0  0  0  0  0
   28.3593   28.0502   22.7766 C   0  0  0  0  0  0  0  0  0  0  0  0
   26.8599   27.5882   29.2299 C   0  0  0  0  0  0  0  0  0  0  0  0
   26.3978   27.0272   30.5605 C   0  0  0  0  0  0  0  0  0  0  0  0
  1  2  1  0
  2  3  2  0
  2  4  1  0
  4  5  2  0
  5  6  1  0
  6  7  2  0
  7  8  1  0
  8  9  2  0
  9 10  1  0
 10 11  2  0
 11 12  1  0
 12 13  2  0
 13 14  1  0
 14 15  1  0
 15 16  1  0
 16 17  1  0
 17 18  1  0
 18 19  2  0
 19 20  1  0
 20 21  1  0
 20 22  2  0
 22 23  1  0
 23 24  2  0
 23 25  1  0
 25 26  1  0
 26 27  1  0
 27 28  1  0
 28 29  1  0
 29 30  1  0
 17 31  1  0
 31 32  1  0
 13  4  1  0
 32 14  1  0
 12  7  1  0
 24 18  1  0
 30 22  1  0
M  END
>  <AAScore>  (1) 
-1.4118952298136862

>  <RootName>  (1) 
./4ZLY/04_DeltaGEst/trajectory_03/rank_01/lead_0003

$$$$
