confid_5
     RDKit          3D

 29 32  0  0  0  0  0  0  0  0999 V2000
   24.4800   26.1000   36.1300 N   0  0  0  0  0  0  0  0  0  0  0  0
   25.2500   26.2500   34.9900 C   0  0  0  0  0  0  0  0  0  0  0  0
   24.7400   25.7600   33.9900 O   0  0  0  0  0  0  0  0  0  0  0  0
   26.5900   26.8900   34.9600 C   0  0  0  0  0  0  0  0  0  0  0  0
   27.0600   27.2400   36.1600 N   0  0  0  0  0  0  0  0  0  0  0  0
   28.3000   27.7100   36.2400 N   0  0  0  0  0  0  0  0  0  0  0  0
   29.0500   27.9600   35.1500 C   0  0  0  0  0  0  0  0  0  0  0  0
   30.3400   28.4900   35.2600 C   0  0  0  0  0  0  0  0  0  0  0  0
   31.1100   28.8200   34.1400 C   0  0  0  0  0  0  0  0  0  0  0  0
   30.5200   28.6700   32.8800 C   0  0  0  0  0  0  0  0  0  0  0  0
   29.2900   28.0200   32.7700 C   0  0  0  0  0  0  0  0  0  0  0  0
   28.5200   27.7100   33.8900 C   0  0  0  0  0  0  0  0  0  0  0  0
   27.2700   27.0800   33.7600 C   0  0  0  0  0  0  0  0  0  0  0  0
   26.7500   26.8800   32.4900 N   0  0  0  0  0  0  0  0  0  0  0  0
   23.4429   25.1180   36.3208 C   0  0  0  0  0  0  0  0  0  0  0  0
   22.3938   25.4213   37.1214 N   0  0  0  0  0  0  0  0  0  0  0  0
   21.3942   24.5403   37.3720 C   0  0  0  0  0  0  0  0  0  0  0  0
   21.4091   23.2407   36.8225 C   0  0  0  0  0  0  0  0  0  0  0  0
   20.1945   22.3573   37.0966 C   0  0  0  0  0  0  0  0  0  0  0  0
   19.6085   22.7150   38.3034 F   0  0  0  0  0  0  0  0  0  0  0  0
   19.2541   22.5757   36.1053 F   0  0  0  0  0  0  0  0  0  0  0  0
   20.5103   20.8888   37.1659 C   0  0  0  0  0  0  0  0  0  0  0  0
   20.4939   20.2998   38.2819 O   0  0  0  0  0  0  0  0  0  0  0  0
   20.8106   20.1485   35.9745 N   0  0  0  0  0  0  0  0  0  0  0  0
   21.4099   20.8439   34.8344 C   0  0  0  0  0  0  0  0  0  0  0  0
   22.6909   21.5485   35.2820 C   0  0  0  0  0  0  0  0  0  0  0  0
   22.4876   22.9032   35.9438 C   0  0  0  0  0  0  0  0  0  0  0  0
   23.5169   23.8431   35.7462 C   0  0  0  0  0  0  0  0  0  0  0  0
   20.6325   18.6938   35.9630 C   0  0  0  0  0  0  0  0  0  0  0  0
  1  2  1  0
  2  3  2  0
  2  4  1  0
  4  5  2  0
  5  6  1  0
  6  7  2  0
  7  8  1  0
  8  9  2  0
  9 10  1  0
 10 11  2  0
 11 12  1  0
 12 13  2  0
 13 14  1  0
  1 15  1  0
 15 16  2  0
 16 17  1  0
 17 18  2  0
 18 19  1  0
 19 20  1  0
 19 21  1  0
 19 22  1  0
 22 23  2  0
 22 24  1  0
 24 25  1  0
 25 26  1  0
 26 27  1  0
 27 28  2  0
 24 29  1  0
 13  4  1  0
 28 15  1  0
 12  7  1  0
 27 18  1  0
M  END
>  <AAScore>  (1) 
535.364325825619

>  <RootName>  (1) 
./4ZLY/04_DeltaGEst/trajectory_00/rank_00/lead_0207

$$$$
