confid_0
     RDKit          3D

 27 31  0  0  0  0  0  0  0  0999 V2000
   24.5500   26.3900   36.2500 N   0  0  0  0  0  0  0  0  0  0  0  0
   25.6000   26.1300   35.4000 C   0  0  0  0  0  0  0  0  0  0  0  0
   25.4300   25.4300   34.4200 O   0  0  0  0  0  0  0  0  0  0  0  0
   26.9800   26.6300   35.7100 C   0  0  0  0  0  0  0  0  0  0  0  0
   27.3200   26.8200   36.9800 N   0  0  0  0  0  0  0  0  0  0  0  0
   28.4700   27.4000   37.3100 N   0  0  0  0  0  0  0  0  0  0  0  0
   29.4000   27.6300   36.3700 C   0  0  0  0  0  0  0  0  0  0  0  0
   30.6600   28.0500   36.8000 C   0  0  0  0  0  0  0  0  0  0  0  0
   31.5700   28.3600   35.7800 C   0  0  0  0  0  0  0  0  0  0  0  0
   31.3700   28.1000   34.4300 C   0  0  0  0  0  0  0  0  0  0  0  0
   30.1200   27.5900   34.0500 C   0  0  0  0  0  0  0  0  0  0  0  0
   29.1500   27.3400   35.0300 C   0  0  0  0  0  0  0  0  0  0  0  0
   27.8800   26.8900   34.6600 C   0  0  0  0  0  0  0  0  0  0  0  0
   27.4800   26.6100   33.3700 N   0  0  0  0  0  0  0  0  0  0  0  0
   23.1624   26.3416   35.8735 C   0  0  0  0  0  0  0  0  0  0  0  0
   22.2702   26.4617   36.8208 N   0  0  0  0  0  0  0  0  0  0  0  0
   20.8623   26.5456   36.6105 C   0  0  0  0  0  0  0  0  0  0  0  0
   20.4473   27.4030   35.7076 C   0  0  0  0  0  0  0  0  0  0  0  0
   20.8852   28.4444   34.7055 C   0  0  1  0  0  0  0  0  0  0  0  0
   21.3888   29.5930   35.2875 F   0  0  0  0  0  0  0  0  0  0  0  0
   21.6561   27.8547   33.6098 N   0  0  0  0  0  0  0  0  0  0  0  0
   21.4395   28.2883   32.2376 C   0  0  0  0  0  0  0  0  0  0  0  0
   21.3936   27.0090   31.3923 C   0  0  0  0  0  0  0  0  0  0  0  0
   22.0733   25.9191   32.2247 C   0  0  0  0  0  0  0  0  0  0  0  0
   22.1532   26.5133   33.5784 C   0  0  0  0  0  0  0  0  0  0  0  0
   22.8034   25.9103   34.5400 N   0  0  0  0  0  0  0  0  0  0  0  0
   19.4846   28.1772   34.7997 C   0  0  0  0  0  0  0  0  0  0  0  0
  1  2  1  0
  2  3  2  0
  2  4  1  0
  4  5  2  0
  5  6  1  0
  6  7  2  0
  7  8  1  0
  8  9  2  0
  9 10  1  0
 10 11  2  0
 11 12  1  0
 12 13  2  0
 13 14  1  0
  1 15  1  0
 15 16  2  0
 16 17  1  0
 17 18  2  0
 18 19  1  0
 19 20  1  1
 19 21  1  0
 21 22  1  0
 22 23  1  0
 23 24  1  0
 24 25  1  0
 25 26  2  0
 19 27  1  0
 13  4  1  0
 26 15  1  0
 12  7  1  0
 27 18  1  0
 25 21  1  0
M  END
>  <AAScore>  (1) 
2813.786195484388

>  <RootName>  (1) 
./4ZLY/04_DeltaGEst/trajectory_01/rank_00/lead_0006

$$$$
