confid_16
     RDKit          3D

 30 33  0  0  0  0  0  0  0  0999 V2000
   25.3300   26.2600   34.7600 N   0  0  0  0  0  0  0  0  0  0  0  0
   26.1200   25.9200   33.6900 C   0  0  0  0  0  0  0  0  0  0  0  0
   25.6300   25.1100   32.9400 O   0  0  0  0  0  0  0  0  0  0  0  0
   27.5200   26.3800   33.4600 C   0  0  0  0  0  0  0  0  0  0  0  0
   28.1600   26.6300   34.6100 N   0  0  0  0  0  0  0  0  0  0  0  0
   29.4800   26.8500   34.5700 N   0  0  0  0  0  0  0  0  0  0  0  0
   30.1900   26.7800   33.4400 C   0  0  0  0  0  0  0  0  0  0  0  0
   31.5600   27.0500   33.5000 C   0  0  0  0  0  0  0  0  0  0  0  0
   32.2700   27.2400   32.3100 C   0  0  0  0  0  0  0  0  0  0  0  0
   31.6100   27.2500   31.0800 C   0  0  0  0  0  0  0  0  0  0  0  0
   30.2700   26.8700   31.0600 C   0  0  0  0  0  0  0  0  0  0  0  0
   29.5100   26.6900   32.2300 C   0  0  0  0  0  0  0  0  0  0  0  0
   28.1400   26.4100   32.2000 C   0  0  0  0  0  0  0  0  0  0  0  0
   27.4300   26.1300   31.0500 N   0  0  0  0  0  0  0  0  0  0  0  0
   26.5134   27.1333   30.4977 C   0  0  0  0  0  0  0  0  0  0  0  0
   26.6408   27.1714   28.9721 C   0  0  0  0  0  0  0  0  0  0  0  0
   26.6026   25.8212   28.3892 N   0  0  0  0  0  0  0  0  0  0  0  0
   26.6039   25.6846   26.9539 C   0  0  0  0  0  0  0  0  0  0  0  0
   27.1665   26.5666   26.2491 O   0  0  0  0  0  0  0  0  0  0  0  0
   25.9375   24.5442   26.2815 C   0  0  0  0  0  0  0  0  0  0  0  0
   24.6852   24.1029   26.7429 C   0  0  0  0  0  0  0  0  0  0  0  0
   24.0320   23.0410   26.1149 C   0  0  0  0  0  0  0  0  0  0  0  0
   22.8242   22.6246   26.5689 F   0  0  0  0  0  0  0  0  0  0  0  0
   24.6173   22.4135   25.0155 C   0  0  0  0  0  0  0  0  0  0  0  0
   25.8564   22.8459   24.5388 C   0  0  0  0  0  0  0  0  0  0  0  0
   26.5299   23.9146   25.1648 C   0  0  0  0  0  0  0  0  0  0  0  0
   27.7843   24.3601   24.7147 O   0  0  0  0  0  0  0  0  0  0  0  0
   28.4895   23.8082   23.6077 C   0  0  0  0  0  0  0  0  0  0  0  0
   26.5809   24.6366   29.2617 C   0  0  0  0  0  0  0  0  0  0  0  0
   27.5695   24.8095   30.4190 C   0  0  0  0  0  0  0  0  0  0  0  0
  1  2  1  0
  2  3  2  0
  2  4  1  0
  4  5  2  0
  5  6  1  0
  6  7  2  0
  7  8  1  0
  8  9  2  0
  9 10  1  0
 10 11  2  0
 11 12  1  0
 12 13  2  0
 13 14  1  0
 14 15  1  0
 15 16  1  0
 16 17  1  0
 17 18  1  0
 18 19  2  0
 18 20  1  0
 20 21  2  0
 21 22  1  0
 22 23  1  0
 22 24  2  0
 24 25  1  0
 25 26  2  0
 26 27  1  0
 27 28  1  0
 17 29  1  0
 29 30  1  0
 13  4  1  0
 30 14  1  0
 12  7  1  0
 26 20  1  0
M  END
>  <AAScore>  (1) 
19.87669460269469

>  <RootName>  (1) 
./4ZLY/04_DeltaGEst/trajectory_03/rank_01/lead_0377

$$$$
