confid_2
     RDKit          3D

 28 31  0  0  0  0  0  0  0  0999 V2000
   24.4800   26.1000   36.1300 N   0  0  0  0  0  0  0  0  0  0  0  0
   25.2500   26.2500   34.9900 C   0  0  0  0  0  0  0  0  0  0  0  0
   24.7400   25.7600   33.9900 O   0  0  0  0  0  0  0  0  0  0  0  0
   26.5900   26.8900   34.9600 C   0  0  0  0  0  0  0  0  0  0  0  0
   27.0600   27.2400   36.1600 N   0  0  0  0  0  0  0  0  0  0  0  0
   28.3000   27.7100   36.2400 N   0  0  0  0  0  0  0  0  0  0  0  0
   29.0500   27.9600   35.1500 C   0  0  0  0  0  0  0  0  0  0  0  0
   30.3400   28.4900   35.2600 C   0  0  0  0  0  0  0  0  0  0  0  0
   31.1100   28.8200   34.1400 C   0  0  0  0  0  0  0  0  0  0  0  0
   30.5200   28.6700   32.8800 C   0  0  0  0  0  0  0  0  0  0  0  0
   29.2900   28.0200   32.7700 C   0  0  0  0  0  0  0  0  0  0  0  0
   28.5200   27.7100   33.8900 C   0  0  0  0  0  0  0  0  0  0  0  0
   27.2700   27.0800   33.7600 C   0  0  0  0  0  0  0  0  0  0  0  0
   26.7500   26.8800   32.4900 N   0  0  0  0  0  0  0  0  0  0  0  0
   23.4256   25.1357   36.3076 C   0  0  0  0  0  0  0  0  0  0  0  0
   23.5090   23.8452   35.7600 C   0  0  0  0  0  0  0  0  0  0  0  0
   22.4777   22.9220   35.9841 C   0  0  0  0  0  0  0  0  0  0  0  0
   22.5797   21.5904   35.4425 N   0  0  0  0  0  0  0  0  0  0  0  0
   22.7699   21.3862   34.0036 C   0  0  0  0  0  0  0  0  0  0  0  0
   23.6579   20.1592   33.7784 C   0  0  0  0  0  0  0  0  0  0  0  0
   23.1416   19.0340   34.4666 O   0  0  0  0  0  0  0  0  0  0  0  0
   23.1929   19.2588   35.8638 C   0  0  0  0  0  0  0  0  0  0  0  0
   22.2710   20.4152   36.2626 C   0  0  0  0  0  0  0  0  0  0  0  0
   21.3749   23.3060   36.7672 C   0  0  0  0  0  0  0  0  0  0  0  0
   20.3468   22.4444   36.9829 F   0  0  0  0  0  0  0  0  0  0  0  0
   21.3373   24.5944   37.3217 C   0  0  0  0  0  0  0  0  0  0  0  0
   22.3604   25.4606   37.0894 N   0  0  0  0  0  0  0  0  0  0  0  0
   20.1949   25.0187   38.1903 C   0  0  0  0  0  0  0  0  0  0  0  0
  1  2  1  0
  2  3  2  0
  2  4  1  0
  4  5  2  0
  5  6  1  0
  6  7  2  0
  7  8  1  0
  8  9  2  0
  9 10  1  0
 10 11  2  0
 11 12  1  0
 12 13  2  0
 13 14  1  0
  1 15  1  0
 15 16  2  0
 16 17  1  0
 17 18  1  0
 18 19  1  0
 19 20  1  0
 20 21  1  0
 21 22  1  0
 22 23  1  0
 17 24  2  0
 24 25  1  0
 24 26  1  0
 26 27  2  0
 26 28  1  0
 13  4  1  0
 27 15  1  0
 12  7  1  0
 23 18  1  0
M  END
>  <AAScore>  (1) 
2171.746559392832

>  <RootName>  (1) 
./4ZLY/04_DeltaGEst/trajectory_00/rank_00/lead_0098

$$$$
