confid_17
     RDKit          3D

 28 31  0  0  0  0  0  0  0  0999 V2000
   24.5500   26.3900   36.2500 N   0  0  0  0  0  0  0  0  0  0  0  0
   25.6000   26.1300   35.4000 C   0  0  0  0  0  0  0  0  0  0  0  0
   25.4300   25.4300   34.4200 O   0  0  0  0  0  0  0  0  0  0  0  0
   26.9800   26.6300   35.7100 C   0  0  0  0  0  0  0  0  0  0  0  0
   27.3200   26.8200   36.9800 N   0  0  0  0  0  0  0  0  0  0  0  0
   28.4700   27.4000   37.3100 N   0  0  0  0  0  0  0  0  0  0  0  0
   29.4000   27.6300   36.3700 C   0  0  0  0  0  0  0  0  0  0  0  0
   30.6600   28.0500   36.8000 C   0  0  0  0  0  0  0  0  0  0  0  0
   31.5700   28.3600   35.7800 C   0  0  0  0  0  0  0  0  0  0  0  0
   31.3700   28.1000   34.4300 C   0  0  0  0  0  0  0  0  0  0  0  0
   30.1200   27.5900   34.0500 C   0  0  0  0  0  0  0  0  0  0  0  0
   29.1500   27.3400   35.0300 C   0  0  0  0  0  0  0  0  0  0  0  0
   27.8800   26.8900   34.6600 C   0  0  0  0  0  0  0  0  0  0  0  0
   27.4800   26.6100   33.3700 N   0  0  0  0  0  0  0  0  0  0  0  0
   30.9678   28.3034   38.1828 N   0  0  0  0  0  0  0  0  0  0  0  0
   30.2687   29.3580   38.9138 C   0  0  0  0  0  0  0  0  0  0  0  0
   29.8632   28.8318   40.2867 C   0  0  0  0  0  0  0  0  0  0  0  0
   31.0102   28.1409   41.0004 C   0  0  0  0  0  0  0  0  0  0  0  0
   30.9621   27.9339   42.4029 C   0  0  0  0  0  0  0  0  0  0  0  0
   32.0234   27.2766   43.0452 C   0  0  0  0  0  0  0  0  0  0  0  0
   33.1153   26.7938   42.3154 C   0  0  0  0  0  0  0  0  0  0  0  0
   34.2400   26.0699   43.0091 C   0  0  0  0  0  0  0  0  0  0  0  0
   34.2472   24.7019   42.6493 O   0  0  0  0  0  0  0  0  0  0  0  0
   33.3888   23.9699   43.4969 C   0  0  0  0  0  0  0  0  0  0  0  0
   33.1416   26.9553   40.9270 C   0  0  0  0  0  0  0  0  0  0  0  0
   32.0975   27.6099   40.2599 C   0  0  0  0  0  0  0  0  0  0  0  0
   32.2026   27.7707   38.7605 C   0  0  0  0  0  0  0  0  0  0  0  0
   29.8057   28.4286   43.2338 C   0  0  0  0  0  0  0  0  0  0  0  0
  1  2  1  0
  2  3  2  0
  2  4  1  0
  4  5  2  0
  5  6  1  0
  6  7  2  0
  7  8  1  0
  8  9  2  0
  9 10  1  0
 10 11  2  0
 11 12  1  0
 12 13  2  0
 13 14  1  0
  8 15  1  0
 15 16  1  0
 16 17  1  0
 17 18  1  0
 18 19  2  0
 19 20  1  0
 20 21  2  0
 21 22  1  0
 22 23  1  0
 23 24  1  0
 21 25  1  0
 25 26  2  0
 26 27  1  0
 19 28  1  0
 13  4  1  0
 27 15  1  0
 12  7  1  0
 26 18  1  0
M  END
>  <AAScore>  (1) 
349.1733383316885

>  <RootName>  (1) 
./4ZLY/04_DeltaGEst/trajectory_01/rank_01/lead_0205

$$$$
