confid_19
     RDKit          3D

 27 30  0  0  0  0  0  0  0  0999 V2000
   24.2000   26.2400   35.6900 N   0  0  0  0  0  0  0  0  0  0  0  0
   24.8500   26.2800   34.4800 C   0  0  0  0  0  0  0  0  0  0  0  0
   24.3100   25.7400   33.5400 O   0  0  0  0  0  0  0  0  0  0  0  0
   26.1800   26.9700   34.4700 C   0  0  0  0  0  0  0  0  0  0  0  0
   26.6500   27.6000   35.5500 N   0  0  0  0  0  0  0  0  0  0  0  0
   27.7900   28.2700   35.6200 N   0  0  0  0  0  0  0  0  0  0  0  0
   28.5400   28.3000   34.5100 C   0  0  0  0  0  0  0  0  0  0  0  0
   29.7700   28.9400   34.5600 C   0  0  0  0  0  0  0  0  0  0  0  0
   30.7000   28.8900   33.5000 C   0  0  0  0  0  0  0  0  0  0  0  0
   30.3700   28.1400   32.3700 C   0  0  0  0  0  0  0  0  0  0  0  0
   29.1200   27.5200   32.2800 C   0  0  0  0  0  0  0  0  0  0  0  0
   28.2100   27.6100   33.3300 C   0  0  0  0  0  0  0  0  0  0  0  0
   26.9700   26.9700   33.3100 C   0  0  0  0  0  0  0  0  0  0  0  0
   26.5300   26.2400   32.2200 N   0  0  0  0  0  0  0  0  0  0  0  0
   23.2134   25.2586   36.0538 C   0  0  0  0  0  0  0  0  0  0  0  0
   22.5134   25.4107   37.2204 N   0  0  0  0  0  0  0  0  0  0  0  0
   21.5863   24.4933   37.6157 C   0  0  0  0  0  0  0  0  0  0  0  0
   21.3594   23.3903   36.8019 C   0  0  0  0  0  0  0  0  0  0  0  0
   20.4558   22.2401   36.9997 C   0  0  0  0  0  0  0  0  0  0  0  0
   20.5085   21.4978   35.7172 N   0  0  0  0  0  0  0  0  0  0  0  0
   20.3531   20.0371   35.8710 C   0  0  0  0  0  0  0  0  0  0  0  0
   18.9288   19.6866   36.2941 C   0  0  0  0  0  0  0  0  0  0  0  0
   21.7178   21.9685   34.9734 C   0  0  0  0  0  0  0  0  0  0  0  0
   22.9365   21.0197   35.0749 C   0  0  0  0  0  0  0  0  0  0  0  0
   21.3484   22.2235   33.5067 C   0  0  0  0  0  0  0  0  0  0  0  0
   22.0621   23.2472   35.6511 C   0  0  0  0  0  0  0  0  0  0  0  0
   22.9945   24.1580   35.2723 N   0  0  0  0  0  0  0  0  0  0  0  0
  1  2  1  0
  2  3  2  0
  2  4  1  0
  4  5  2  0
  5  6  1  0
  6  7  2  0
  7  8  1  0
  8  9  2  0
  9 10  1  0
 10 11  2  0
 11 12  1  0
 12 13  2  0
 13 14  1  0
  1 15  1  0
 15 16  2  0
 16 17  1  0
 17 18  2  0
 18 19  1  0
 19 20  1  0
 20 21  1  0
 21 22  1  0
 20 23  1  0
 23 24  1  0
 23 25  1  0
 23 26  1  0
 26 27  2  0
 13  4  1  0
 27 15  1  0
 12  7  1  0
 26 18  1  0
M  END
>  <AAScore>  (1) 
2416.58427658417

>  <RootName>  (1) 
./4ZLY/04_DeltaGEst/trajectory_04/rank_00/lead_0066

$$$$
