confid_11
     RDKit          3D

 28 31  0  0  0  0  0  0  0  0999 V2000
   24.2000   26.2400   35.6900 N   0  0  0  0  0  0  0  0  0  0  0  0
   24.8500   26.2800   34.4800 C   0  0  0  0  0  0  0  0  0  0  0  0
   24.3100   25.7400   33.5400 O   0  0  0  0  0  0  0  0  0  0  0  0
   26.1800   26.9700   34.4700 C   0  0  0  0  0  0  0  0  0  0  0  0
   26.6500   27.6000   35.5500 N   0  0  0  0  0  0  0  0  0  0  0  0
   27.7900   28.2700   35.6200 N   0  0  0  0  0  0  0  0  0  0  0  0
   28.5400   28.3000   34.5100 C   0  0  0  0  0  0  0  0  0  0  0  0
   29.7700   28.9400   34.5600 C   0  0  0  0  0  0  0  0  0  0  0  0
   30.7000   28.8900   33.5000 C   0  0  0  0  0  0  0  0  0  0  0  0
   30.3700   28.1400   32.3700 C   0  0  0  0  0  0  0  0  0  0  0  0
   29.1200   27.5200   32.2800 C   0  0  0  0  0  0  0  0  0  0  0  0
   28.2100   27.6100   33.3300 C   0  0  0  0  0  0  0  0  0  0  0  0
   26.9700   26.9700   33.3100 C   0  0  0  0  0  0  0  0  0  0  0  0
   26.5300   26.2400   32.2200 N   0  0  0  0  0  0  0  0  0  0  0  0
   22.7797   26.0521   35.8380 C   0  0  0  0  0  0  0  0  0  0  0  0
   21.9419   26.2244   34.7805 N   0  0  0  0  0  0  0  0  0  0  0  0
   20.5975   26.0693   34.8906 C   0  0  0  0  0  0  0  0  0  0  0  0
   20.0136   25.7167   36.1177 C   0  0  0  0  0  0  0  0  0  0  0  0
   18.4963   25.6539   36.1762 C   0  0  0  0  0  0  0  0  0  0  0  0
   17.9338   25.1223   37.4405 N   0  0  0  0  0  0  0  0  0  0  0  0
   16.4631   25.2180   37.4170 C   0  0  0  0  0  0  0  0  0  0  0  0
   18.3819   23.7507   37.8146 C   0  0  1  0  0  0  0  0  0  0  0  0
   18.4722   22.7697   36.6265 C   0  0  0  0  0  0  0  0  0  0  0  0
   19.7054   23.8112   38.6110 C   0  0  0  0  0  0  0  0  0  0  0  0
   20.3409   25.1269   38.5032 N   0  0  0  0  0  0  0  0  0  0  0  0
   20.6613   25.8837   39.7134 C   0  0  0  0  0  0  0  0  0  0  0  0
   20.8625   25.5392   37.2335 C   0  0  0  0  0  0  0  0  0  0  0  0
   22.2457   25.7168   37.0865 C   0  0  0  0  0  0  0  0  0  0  0  0
  1  2  1  0
  2  3  2  0
  2  4  1  0
  4  5  2  0
  5  6  1  0
  6  7  2  0
  7  8  1  0
  8  9  2  0
  9 10  1  0
 10 11  2  0
 11 12  1  0
 12 13  2  0
 13 14  1  0
  1 15  1  0
 15 16  2  0
 16 17  1  0
 17 18  2  0
 18 19  1  0
 19 20  1  0
 20 21  1  0
 20 22  1  0
 22 23  1  6
 22 24  1  0
 24 25  1  0
 25 26  1  0
 25 27  1  0
 27 28  2  0
 13  4  1  0
 28 15  1  0
 12  7  1  0
 27 18  1  0
M  END
>  <AAScore>  (1) 
226.45428107968647

>  <RootName>  (1) 
./4ZLY/04_DeltaGEst/trajectory_04/rank_00/lead_0070

$$$$
