confid_8
     RDKit          3D

 27 30  0  0  0  0  0  0  0  0999 V2000
   24.4800   26.1000   36.1300 N   0  0  0  0  0  0  0  0  0  0  0  0
   25.2500   26.2500   34.9900 C   0  0  0  0  0  0  0  0  0  0  0  0
   24.7400   25.7600   33.9900 O   0  0  0  0  0  0  0  0  0  0  0  0
   26.5900   26.8900   34.9600 C   0  0  0  0  0  0  0  0  0  0  0  0
   27.0600   27.2400   36.1600 N   0  0  0  0  0  0  0  0  0  0  0  0
   28.3000   27.7100   36.2400 N   0  0  0  0  0  0  0  0  0  0  0  0
   29.0500   27.9600   35.1500 C   0  0  0  0  0  0  0  0  0  0  0  0
   30.3400   28.4900   35.2600 C   0  0  0  0  0  0  0  0  0  0  0  0
   31.1100   28.8200   34.1400 C   0  0  0  0  0  0  0  0  0  0  0  0
   30.5200   28.6700   32.8800 C   0  0  0  0  0  0  0  0  0  0  0  0
   29.2900   28.0200   32.7700 C   0  0  0  0  0  0  0  0  0  0  0  0
   28.5200   27.7100   33.8900 C   0  0  0  0  0  0  0  0  0  0  0  0
   27.2700   27.0800   33.7600 C   0  0  0  0  0  0  0  0  0  0  0  0
   26.7500   26.8800   32.4900 N   0  0  0  0  0  0  0  0  0  0  0  0
   23.0912   25.7321   36.1235 C   0  0  0  0  0  0  0  0  0  0  0  0
   22.6204   24.7090   36.8664 N   0  0  0  0  0  0  0  0  0  0  0  0
   21.3072   24.6654   36.5723 C   0  0  0  0  0  0  0  0  0  0  0  0
   21.0056   25.6565   35.6631 C   0  0  0  0  0  0  0  0  0  0  0  0
   19.6250   25.9577   35.1529 C   0  0  0  0  0  0  0  0  0  0  0  0
   19.6615   26.3503   33.7433 N   0  0  0  0  0  0  0  0  0  0  0  0
   19.8630   25.3397   32.7045 C   0  0  0  0  0  0  0  0  0  0  0  0
   19.3570   27.6977   33.3527 C   0  0  0  0  0  0  0  0  0  0  0  0
   18.3741   27.9052   32.5918 O   0  0  0  0  0  0  0  0  0  0  0  0
   20.2360   28.8688   33.7195 C   0  0  0  0  0  0  0  0  0  0  0  0
   21.2376   28.6330   34.8623 C   0  0  0  0  0  0  0  0  0  0  0  0
   22.2841   27.5452   34.5428 C   0  0  0  0  0  0  0  0  0  0  0  0
   22.1297   26.3615   35.4032 N   0  0  0  0  0  0  0  0  0  0  0  0
  1  2  1  0
  2  3  2  0
  2  4  1  0
  4  5  2  0
  5  6  1  0
  6  7  2  0
  7  8  1  0
  8  9  2  0
  9 10  1  0
 10 11  2  0
 11 12  1  0
 12 13  2  0
 13 14  1  0
  1 15  1  0
 15 16  2  0
 16 17  1  0
 17 18  2  0
 18 19  1  0
 19 20  1  0
 20 21  1  0
 20 22  1  0
 22 23  2  0
 22 24  1  0
 24 25  1  0
 25 26  1  0
 26 27  1  0
 13  4  1  0
 27 15  1  0
 12  7  1  0
 27 18  1  0
M  END
>  <AAScore>  (1) 
3829.549287999203

>  <RootName>  (1) 
./4ZLY/04_DeltaGEst/trajectory_00/rank_01/lead_0437

$$$$
