confid_1
     RDKit          3D

 27 30  0  0  0  0  0  0  0  0999 V2000
   24.5700   26.8800   35.5900 N   0  0  0  0  0  0  0  0  0  0  0  0
   25.5000   26.4000   34.6900 C   0  0  0  0  0  0  0  0  0  0  0  0
   25.1700   25.5200   33.9100 O   0  0  0  0  0  0  0  0  0  0  0  0
   26.8400   27.0200   34.7400 C   0  0  0  0  0  0  0  0  0  0  0  0
   27.3800   27.2800   35.9400 N   0  0  0  0  0  0  0  0  0  0  0  0
   28.6200   27.7400   36.0300 N   0  0  0  0  0  0  0  0  0  0  0  0
   29.3800   28.0000   34.9600 C   0  0  0  0  0  0  0  0  0  0  0  0
   30.6700   28.5000   35.1300 C   0  0  0  0  0  0  0  0  0  0  0  0
   31.5400   28.6100   34.0300 C   0  0  0  0  0  0  0  0  0  0  0  0
   31.0900   28.2200   32.7700 C   0  0  0  0  0  0  0  0  0  0  0  0
   29.8000   27.7000   32.6000 C   0  0  0  0  0  0  0  0  0  0  0  0
   28.9600   27.5500   33.7100 C   0  0  0  0  0  0  0  0  0  0  0  0
   27.6600   27.0300   33.5900 C   0  0  0  0  0  0  0  0  0  0  0  0
   27.1600   26.7400   32.3400 N   0  0  0  0  0  0  0  0  0  0  0  0
   23.3253   26.2253   35.9091 C   0  0  0  0  0  0  0  0  0  0  0  0
   23.0837   24.9523   35.4915 N   0  0  0  0  0  0  0  0  0  0  0  0
   21.9280   24.3004   35.7805 C   0  0  0  0  0  0  0  0  0  0  0  0
   20.9311   24.9262   36.5456 C   0  0  0  0  0  0  0  0  0  0  0  0
   19.5960   24.2525   36.7409 C   0  0  0  0  0  0  0  0  0  0  0  0
   19.3078   24.0555   38.1787 N   0  0  0  0  0  0  0  0  0  0  0  0
   18.4059   22.9042   38.3578 C   0  0  0  0  0  0  0  0  0  0  0  0
   18.6911   25.2618   38.7711 C   0  0  0  0  0  0  0  0  0  0  0  0
   19.7381   26.3402   39.0357 C   0  0  0  0  0  0  0  0  0  0  0  0
   20.2448   26.8970   37.8268 O   0  0  0  0  0  0  0  0  0  0  0  0
   21.1700   26.2293   37.0206 C   0  0  0  0  0  0  0  0  0  0  0  0
   22.3591   26.8851   36.6835 C   0  0  0  0  0  0  0  0  0  0  0  0
   22.5766   28.1489   37.1288 F   0  0  0  0  0  0  0  0  0  0  0  0
  1  2  1  0
  2  3  2  0
  2  4  1  0
  4  5  2  0
  5  6  1  0
  6  7  2  0
  7  8  1  0
  8  9  2  0
  9 10  1  0
 10 11  2  0
 11 12  1  0
 12 13  2  0
 13 14  1  0
  1 15  1  0
 15 16  2  0
 16 17  1  0
 17 18  2  0
 18 19  1  0
 19 20  1  0
 20 21  1  0
 20 22  1  0
 22 23  1  0
 23 24  1  0
 24 25  1  0
 25 26  2  0
 26 27  1  0
 13  4  1  0
 26 15  1  0
 12  7  1  0
 25 18  1  0
M  END
>  <AAScore>  (1) 
24669.967346547728

>  <RootName>  (1) 
./4ZLY/04_DeltaGEst/trajectory_05/rank_00/lead_0360

$$$$
