confid_11
     RDKit          3D

 27 30  0  0  0  0  0  0  0  0999 V2000
   24.4800   26.1000   36.1300 N   0  0  0  0  0  0  0  0  0  0  0  0
   25.2500   26.2500   34.9900 C   0  0  0  0  0  0  0  0  0  0  0  0
   24.7400   25.7600   33.9900 O   0  0  0  0  0  0  0  0  0  0  0  0
   26.5900   26.8900   34.9600 C   0  0  0  0  0  0  0  0  0  0  0  0
   27.0600   27.2400   36.1600 N   0  0  0  0  0  0  0  0  0  0  0  0
   28.3000   27.7100   36.2400 N   0  0  0  0  0  0  0  0  0  0  0  0
   29.0500   27.9600   35.1500 C   0  0  0  0  0  0  0  0  0  0  0  0
   30.3400   28.4900   35.2600 C   0  0  0  0  0  0  0  0  0  0  0  0
   31.1100   28.8200   34.1400 C   0  0  0  0  0  0  0  0  0  0  0  0
   30.5200   28.6700   32.8800 C   0  0  0  0  0  0  0  0  0  0  0  0
   29.2900   28.0200   32.7700 C   0  0  0  0  0  0  0  0  0  0  0  0
   28.5200   27.7100   33.8900 C   0  0  0  0  0  0  0  0  0  0  0  0
   27.2700   27.0800   33.7600 C   0  0  0  0  0  0  0  0  0  0  0  0
   26.7500   26.8800   32.4900 N   0  0  0  0  0  0  0  0  0  0  0  0
   23.0443   25.9765   36.1342 C   0  0  0  0  0  0  0  0  0  0  0  0
   22.1940   26.4812   35.1487 C   0  0  0  0  0  0  0  0  0  0  0  0
   20.9281   26.3114   35.6671 C   0  0  0  0  0  0  0  0  0  0  0  0
   19.6955   27.1097   35.5454 C   0  0  0  0  0  0  0  0  0  0  0  0
   19.0015   26.9510   36.8517 N   0  0  0  0  0  0  0  0  0  0  0  0
   19.9013   26.1679   37.7405 C   0  0  0  0  0  0  0  0  0  0  0  0
   21.0407   25.7816   36.8856 C   0  0  0  0  0  0  0  0  0  0  0  0
   22.3290   25.5727   37.2155 N   0  0  0  0  0  0  0  0  0  0  0  0
   22.8413   25.2781   38.5507 C   0  0  0  0  0  0  0  0  0  0  0  0
   17.4684   26.1356   36.6503 S   0  0  0  0  0  6  0  0  0  0  0  0
   17.6691   24.8189   35.9517 O   0  0  0  0  0  0  0  0  0  0  0  0
   16.8489   25.8913   37.9980 O   0  0  0  0  0  0  0  0  0  0  0  0
   16.3603   27.1521   35.6962 C   0  0  0  0  0  0  0  0  0  0  0  0
  1  2  1  0
  2  3  2  0
  2  4  1  0
  4  5  2  0
  5  6  1  0
  6  7  2  0
  7  8  1  0
  8  9  2  0
  9 10  1  0
 10 11  2  0
 11 12  1  0
 12 13  2  0
 13 14  1  0
  1 15  1  0
 15 16  2  0
 16 17  1  0
 17 18  1  0
 18 19  1  0
 19 20  1  0
 20 21  1  0
 21 22  1  0
 22 23  1  0
 19 24  1  0
 24 25  2  0
 24 26  2  0
 24 27  1  0
 13  4  1  0
 22 15  1  0
 12  7  1  0
 21 17  2  0
M  END
>  <AAScore>  (1) 
9279.663686625472

>  <RootName>  (1) 
./4ZLY/04_DeltaGEst/trajectory_00/rank_00/lead_0118

$$$$
