confid_4
     RDKit          3D

 30 33  0  0  0  0  0  0  0  0999 V2000
   24.2000   26.2400   35.6900 N   0  0  0  0  0  0  0  0  0  0  0  0
   24.8500   26.2800   34.4800 C   0  0  0  0  0  0  0  0  0  0  0  0
   24.3100   25.7400   33.5400 O   0  0  0  0  0  0  0  0  0  0  0  0
   26.1800   26.9700   34.4700 C   0  0  0  0  0  0  0  0  0  0  0  0
   26.6500   27.6000   35.5500 N   0  0  0  0  0  0  0  0  0  0  0  0
   27.7900   28.2700   35.6200 N   0  0  0  0  0  0  0  0  0  0  0  0
   28.5400   28.3000   34.5100 C   0  0  0  0  0  0  0  0  0  0  0  0
   29.7700   28.9400   34.5600 C   0  0  0  0  0  0  0  0  0  0  0  0
   30.7000   28.8900   33.5000 C   0  0  0  0  0  0  0  0  0  0  0  0
   30.3700   28.1400   32.3700 C   0  0  0  0  0  0  0  0  0  0  0  0
   29.1200   27.5200   32.2800 C   0  0  0  0  0  0  0  0  0  0  0  0
   28.2100   27.6100   33.3300 C   0  0  0  0  0  0  0  0  0  0  0  0
   26.9700   26.9700   33.3100 C   0  0  0  0  0  0  0  0  0  0  0  0
   26.5300   26.2400   32.2200 N   0  0  0  0  0  0  0  0  0  0  0  0
   22.7688   26.2034   35.8459 C   0  0  0  0  0  0  0  0  0  0  0  0
   22.2879   25.5962   36.8924 N   0  0  0  0  0  0  0  0  0  0  0  0
   20.9437   25.4077   37.3731 C   0  0  0  0  0  0  0  0  0  0  0  0
   19.8061   25.4543   36.6647 C   0  0  0  0  0  0  0  0  0  0  0  0
   18.4456   25.3031   37.0728 C   0  0  0  0  0  0  0  0  0  0  0  0
   17.8498   25.5063   35.8049 N   0  0  0  0  0  0  0  0  0  0  0  0
   16.4785   25.3707   35.3246 C   0  0  0  0  0  0  0  0  0  0  0  0
   16.1703   23.9080   35.0217 C   0  0  0  0  0  0  0  0  0  0  0  0
   19.2127   25.6587   35.2757 C   0  0  0  0  0  0  0  0  0  0  0  0
   19.7397   25.8983   34.0643 C   0  0  0  0  0  0  0  0  0  0  0  0
   18.7162   26.2530   32.6631 S   0  0  0  0  0  6  0  0  0  0  0  0
   17.6783   25.1823   32.4866 O   0  0  0  0  0  0  0  0  0  0  0  0
   19.5435   26.3023   31.4086 O   0  0  0  0  0  0  0  0  0  0  0  0
   17.9456   27.8445   32.8813 C   0  0  0  0  0  0  0  0  0  0  0  0
   21.2294   25.9157   33.9009 C   0  0  0  0  0  0  0  0  0  0  0  0
   21.8916   26.9199   34.8574 C   0  0  0  0  0  0  0  0  0  0  0  0
  1  2  1  0
  2  3  2  0
  2  4  1  0
  4  5  2  0
  5  6  1  0
  6  7  2  0
  7  8  1  0
  8  9  2  0
  9 10  1  0
 10 11  2  0
 11 12  1  0
 12 13  2  0
 13 14  1  0
  1 15  1  0
 15 16  2  0
 16 17  1  0
 17 18  2  0
 18 19  1  0
 19 20  1  0
 20 21  1  0
 21 22  1  0
 20 23  1  0
 23 24  2  0
 24 25  1  0
 25 26  2  0
 25 27  2  0
 25 28  1  0
 24 29  1  0
 29 30  1  0
 13  4  1  0
 30 15  1  0
 12  7  1  0
 23 18  1  0
M  END
>  <AAScore>  (1) 
1118.3482191751189

>  <RootName>  (1) 
./4ZLY/04_DeltaGEst/trajectory_04/rank_00/lead_0108

$$$$
