confid_12
     RDKit          3D

 28 31  0  0  0  0  0  0  0  0999 V2000
   24.6900   26.1200   35.5300 N   0  0  0  0  0  0  0  0  0  0  0  0
   25.6600   25.6700   34.6600 C   0  0  0  0  0  0  0  0  0  0  0  0
   25.2400   25.0100   33.7200 O   0  0  0  0  0  0  0  0  0  0  0  0
   27.0300   26.2200   34.8800 C   0  0  0  0  0  0  0  0  0  0  0  0
   27.3500   26.7300   36.0700 N   0  0  0  0  0  0  0  0  0  0  0  0
   28.5700   27.1800   36.3300 N   0  0  0  0  0  0  0  0  0  0  0  0
   29.5300   27.1100   35.3900 C   0  0  0  0  0  0  0  0  0  0  0  0
   30.8300   27.5700   35.6500 C   0  0  0  0  0  0  0  0  0  0  0  0
   31.8500   27.5400   34.6900 C   0  0  0  0  0  0  0  0  0  0  0  0
   31.5100   27.1200   33.4000 C   0  0  0  0  0  0  0  0  0  0  0  0
   30.2200   26.6300   33.1100 C   0  0  0  0  0  0  0  0  0  0  0  0
   29.2400   26.6600   34.1000 C   0  0  0  0  0  0  0  0  0  0  0  0
   27.9300   26.2600   33.8100 C   0  0  0  0  0  0  0  0  0  0  0  0
   27.5200   25.7100   32.6100 N   0  0  0  0  0  0  0  0  0  0  0  0
   31.1554   28.0190   36.9747 N   0  0  0  0  0  0  0  0  0  0  0  0
   31.3872   27.0244   38.0231 C   0  0  0  0  0  0  0  0  0  0  0  0
   30.7979   27.5182   39.3388 C   0  0  0  0  0  0  0  0  0  0  0  0
   31.3281   28.8899   39.6758 C   0  0  0  0  0  0  0  0  0  0  0  0
   31.4409   29.3196   41.0142 C   0  0  0  0  0  0  0  0  0  0  0  0
   31.0531   28.4687   42.1018 N   0  0  0  0  0  0  0  0  0  0  0  0
   29.6373   28.2452   42.3946 C   0  0  0  0  0  0  0  0  0  0  0  0
   32.0856   27.7853   42.8781 C   0  0  0  0  0  0  0  0  0  0  0  0
   31.9280   30.6012   41.2920 C   0  0  0  0  0  0  0  0  0  0  0  0
   32.2746   31.4530   40.2405 C   0  0  0  0  0  0  0  0  0  0  0  0
   32.1223   31.0337   38.9555 N   0  0  0  0  0  0  0  0  0  0  0  0
   31.6625   29.7916   38.6422 C   0  0  0  0  0  0  0  0  0  0  0  0
   31.5178   29.4276   37.1828 C   0  0  0  0  0  0  0  0  0  0  0  0
   32.7675   32.8364   40.5207 C   0  0  0  0  0  0  0  0  0  0  0  0
  1  2  1  0
  2  3  2  0
  2  4  1  0
  4  5  2  0
  5  6  1  0
  6  7  2  0
  7  8  1  0
  8  9  2  0
  9 10  1  0
 10 11  2  0
 11 12  1  0
 12 13  2  0
 13 14  1  0
  8 15  1  0
 15 16  1  0
 16 17  1  0
 17 18  1  0
 18 19  2  0
 19 20  1  0
 20 21  1  0
 20 22  1  0
 19 23  1  0
 23 24  2  0
 24 25  1  0
 25 26  2  0
 26 27  1  0
 24 28  1  0
 13  4  1  0
 27 15  1  0
 12  7  1  0
 26 18  1  0
M  END
>  <AAScore>  (1) 
-4.297996242183893

>  <RootName>  (1) 
./4ZLY/04_DeltaGEst/trajectory_02/rank_01/lead_0411

$$$$
