confid_11
     RDKit          3D

 29 32  0  0  0  0  0  0  0  0999 V2000
   25.3300   26.2600   34.7600 N   0  0  0  0  0  0  0  0  0  0  0  0
   26.1200   25.9200   33.6900 C   0  0  0  0  0  0  0  0  0  0  0  0
   25.6300   25.1100   32.9400 O   0  0  0  0  0  0  0  0  0  0  0  0
   27.5200   26.3800   33.4600 C   0  0  0  0  0  0  0  0  0  0  0  0
   28.1600   26.6300   34.6100 N   0  0  0  0  0  0  0  0  0  0  0  0
   29.4800   26.8500   34.5700 N   0  0  0  0  0  0  0  0  0  0  0  0
   30.1900   26.7800   33.4400 C   0  0  0  0  0  0  0  0  0  0  0  0
   31.5600   27.0500   33.5000 C   0  0  0  0  0  0  0  0  0  0  0  0
   32.2700   27.2400   32.3100 C   0  0  0  0  0  0  0  0  0  0  0  0
   31.6100   27.2500   31.0800 C   0  0  0  0  0  0  0  0  0  0  0  0
   30.2700   26.8700   31.0600 C   0  0  0  0  0  0  0  0  0  0  0  0
   29.5100   26.6900   32.2300 C   0  0  0  0  0  0  0  0  0  0  0  0
   28.1400   26.4100   32.2000 C   0  0  0  0  0  0  0  0  0  0  0  0
   27.4300   26.1300   31.0500 N   0  0  0  0  0  0  0  0  0  0  0  0
   23.8907   26.2629   34.7555 C   0  0  0  0  0  0  0  0  0  0  0  0
   23.2281   26.0709   35.9262 N   0  0  0  0  0  0  0  0  0  0  0  0
   21.8728   26.0874   36.0025 C   0  0  0  0  0  0  0  0  0  0  0  0
   21.1002   26.3256   34.8576 C   0  0  0  0  0  0  0  0  0  0  0  0
   19.5951   26.2667   34.9441 C   0  0  0  0  0  0  0  0  0  0  0  0
   19.0616   24.9915   34.2732 C   0  0  0  0  0  0  0  0  0  0  0  0
   19.7332   24.7452   32.9827 N   0  0  0  0  0  0  0  0  0  0  0  0
   20.4788   23.5350   32.7070 C   0  0  0  0  0  0  0  0  0  0  0  0
   21.3221   23.5236   31.7683 O   0  0  0  0  0  0  0  0  0  0  0  0
   20.3076   22.2749   33.5104 C   0  0  0  0  0  0  0  0  0  0  0  0
   21.3490   22.1962   34.6231 C   0  0  0  0  0  0  0  0  0  0  0  0
   19.8070   25.8643   32.0316 C   0  0  0  0  0  0  0  0  0  0  0  0
   20.9854   26.8237   32.3383 C   0  0  0  0  0  0  0  0  0  0  0  0
   21.7550   26.5303   33.6190 C   0  0  0  0  0  0  0  0  0  0  0  0
   23.1582   26.5161   33.5836 C   0  0  0  0  0  0  0  0  0  0  0  0
  1  2  1  0
  2  3  2  0
  2  4  1  0
  4  5  2  0
  5  6  1  0
  6  7  2  0
  7  8  1  0
  8  9  2  0
  9 10  1  0
 10 11  2  0
 11 12  1  0
 12 13  2  0
 13 14  1  0
  1 15  1  0
 15 16  2  0
 16 17  1  0
 17 18  2  0
 18 19  1  0
 19 20  1  0
 20 21  1  0
 21 22  1  0
 22 23  2  0
 22 24  1  0
 24 25  1  0
 21 26  1  0
 26 27  1  0
 27 28  1  0
 28 29  2  0
 13  4  1  0
 29 15  1  0
 12  7  1  0
 28 18  1  0
M  END
>  <AAScore>  (1) 
2333.407931217622

>  <RootName>  (1) 
./4ZLY/04_DeltaGEst/trajectory_03/rank_00/lead_0208

$$$$
