confid_0
     RDKit          3D

 29 32  0  0  0  0  0  0  0  0999 V2000
   24.2000   26.2400   35.6900 N   0  0  0  0  0  0  0  0  0  0  0  0
   24.8500   26.2800   34.4800 C   0  0  0  0  0  0  0  0  0  0  0  0
   24.3100   25.7400   33.5400 O   0  0  0  0  0  0  0  0  0  0  0  0
   26.1800   26.9700   34.4700 C   0  0  0  0  0  0  0  0  0  0  0  0
   26.6500   27.6000   35.5500 N   0  0  0  0  0  0  0  0  0  0  0  0
   27.7900   28.2700   35.6200 N   0  0  0  0  0  0  0  0  0  0  0  0
   28.5400   28.3000   34.5100 C   0  0  0  0  0  0  0  0  0  0  0  0
   29.7700   28.9400   34.5600 C   0  0  0  0  0  0  0  0  0  0  0  0
   30.7000   28.8900   33.5000 C   0  0  0  0  0  0  0  0  0  0  0  0
   30.3700   28.1400   32.3700 C   0  0  0  0  0  0  0  0  0  0  0  0
   29.1200   27.5200   32.2800 C   0  0  0  0  0  0  0  0  0  0  0  0
   28.2100   27.6100   33.3300 C   0  0  0  0  0  0  0  0  0  0  0  0
   26.9700   26.9700   33.3100 C   0  0  0  0  0  0  0  0  0  0  0  0
   26.5300   26.2400   32.2200 N   0  0  0  0  0  0  0  0  0  0  0  0
   23.2156   25.2506   36.0563 C   0  0  0  0  0  0  0  0  0  0  0  0
   23.1325   24.1468   35.3632 N   0  0  0  0  0  0  0  0  0  0  0  0
   22.2527   23.0559   35.6329 C   0  0  0  0  0  0  0  0  0  0  0  0
   21.0215   22.9668   35.0957 C   0  0  0  0  0  0  0  0  0  0  0  0
   20.1784   21.7712   35.4853 C   0  0  0  0  0  0  0  0  0  0  0  0
   18.8376   21.8363   34.8704 N   0  0  0  0  0  0  0  0  0  0  0  0
   18.8629   21.3674   33.4687 C   0  0  0  0  0  0  0  0  0  0  0  0
   19.8581   22.1571   32.6042 C   0  0  0  0  0  0  0  0  0  0  0  0
   19.8487   23.6576   32.9317 C   0  0  0  0  0  0  0  0  0  0  0  0
   20.4735   23.9982   34.2276 N   0  0  0  0  0  0  0  0  0  0  0  0
   20.5735   25.4421   34.5340 C   0  0  0  0  0  0  0  0  0  0  0  0
   20.1047   25.8412   35.9513 C   0  0  0  0  0  0  0  0  0  0  0  0
   20.8418   25.2364   37.1665 C   0  0  0  0  0  0  0  0  0  0  0  0
   22.3574   25.5188   37.2822 C   0  0  0  0  0  0  0  0  0  0  0  0
   17.8808   21.0276   35.6430 C   0  0  0  0  0  0  0  0  0  0  0  0
  1  2  1  0
  2  3  2  0
  2  4  1  0
  4  5  2  0
  5  6  1  0
  6  7  2  0
  7  8  1  0
  8  9  2  0
  9 10  1  0
 10 11  2  0
 11 12  1  0
 12 13  2  0
 13 14  1  0
  1 15  1  0
 15 16  2  0
 16 17  1  0
 17 18  2  0
 18 19  1  0
 19 20  1  0
 20 21  1  0
 21 22  1  0
 22 23  1  0
 23 24  1  0
 24 25  1  0
 25 26  1  0
 26 27  1  0
 27 28  1  0
 20 29  1  0
 13  4  1  0
 28 15  1  0
 12  7  1  0
 24 18  1  0
M  END
>  <AAScore>  (1) 
4424.07817734313

>  <RootName>  (1) 
./4ZLY/04_DeltaGEst/trajectory_04/rank_00/lead_0341

$$$$
