confid_17
     RDKit          3D

 28 31  0  0  0  0  0  0  0  0999 V2000
   24.6900   26.1200   35.5300 N   0  0  0  0  0  0  0  0  0  0  0  0
   25.6600   25.6700   34.6600 C   0  0  0  0  0  0  0  0  0  0  0  0
   25.2400   25.0100   33.7200 O   0  0  0  0  0  0  0  0  0  0  0  0
   27.0300   26.2200   34.8800 C   0  0  0  0  0  0  0  0  0  0  0  0
   27.3500   26.7300   36.0700 N   0  0  0  0  0  0  0  0  0  0  0  0
   28.5700   27.1800   36.3300 N   0  0  0  0  0  0  0  0  0  0  0  0
   29.5300   27.1100   35.3900 C   0  0  0  0  0  0  0  0  0  0  0  0
   30.8300   27.5700   35.6500 C   0  0  0  0  0  0  0  0  0  0  0  0
   31.8500   27.5400   34.6900 C   0  0  0  0  0  0  0  0  0  0  0  0
   31.5100   27.1200   33.4000 C   0  0  0  0  0  0  0  0  0  0  0  0
   30.2200   26.6300   33.1100 C   0  0  0  0  0  0  0  0  0  0  0  0
   29.2400   26.6600   34.1000 C   0  0  0  0  0  0  0  0  0  0  0  0
   27.9300   26.2600   33.8100 C   0  0  0  0  0  0  0  0  0  0  0  0
   27.5200   25.7100   32.6100 N   0  0  0  0  0  0  0  0  0  0  0  0
   23.3095   26.3370   35.1754 C   0  0  0  0  0  0  0  0  0  0  0  0
   22.9254   26.3896   33.8714 N   0  0  0  0  0  0  0  0  0  0  0  0
   21.6344   26.5998   33.5064 C   0  0  0  0  0  0  0  0  0  0  0  0
   20.6376   26.7743   34.4794 C   0  0  0  0  0  0  0  0  0  0  0  0
   19.2144   26.9794   34.0360 C   0  0  0  0  0  0  0  0  0  0  0  0
   18.9394   28.4291   33.9891 N   0  0  0  0  0  0  0  0  0  0  0  0
   18.1478   28.7859   32.8013 C   0  0  0  0  0  0  0  0  0  0  0  0
   18.0288   30.3019   32.6715 C   0  0  0  0  0  0  0  0  0  0  0  0
   18.2077   28.7636   35.0908 O   0  0  0  0  0  0  0  0  0  0  0  0
   19.1129   29.1008   36.1173 C   0  0  0  0  0  0  0  0  0  0  0  0
   19.2325   27.9453   37.0670 C   0  0  0  0  0  0  0  0  0  0  0  0
   20.0817   26.9703   36.9162 N   0  0  0  0  0  0  0  0  0  0  0  0
   21.0197   26.7885   35.8417 C   0  0  0  0  0  0  0  0  0  0  0  0
   22.3543   26.5372   36.1785 C   0  0  0  0  0  0  0  0  0  0  0  0
  1  2  1  0
  2  3  2  0
  2  4  1  0
  4  5  2  0
  5  6  1  0
  6  7  2  0
  7  8  1  0
  8  9  2  0
  9 10  1  0
 10 11  2  0
 11 12  1  0
 12 13  2  0
 13 14  1  0
  1 15  1  0
 15 16  2  0
 16 17  1  0
 17 18  2  0
 18 19  1  0
 19 20  1  0
 20 21  1  0
 21 22  1  0
 20 23  1  0
 23 24  1  0
 24 25  1  0
 25 26  2  0
 26 27  1  0
 27 28  2  0
 13  4  1  0
 28 15  1  0
 12  7  1  0
 27 18  1  0
M  END
>  <AAScore>  (1) 
247.4475493655829

>  <RootName>  (1) 
./4ZLY/04_DeltaGEst/trajectory_02/rank_00/lead_0230

$$$$
