confid_2
     RDKit          3D

 27 30  0  0  0  0  0  0  0  0999 V2000
   24.5500   26.3900   36.2500 N   0  0  0  0  0  0  0  0  0  0  0  0
   25.6000   26.1300   35.4000 C   0  0  0  0  0  0  0  0  0  0  0  0
   25.4300   25.4300   34.4200 O   0  0  0  0  0  0  0  0  0  0  0  0
   26.9800   26.6300   35.7100 C   0  0  0  0  0  0  0  0  0  0  0  0
   27.3200   26.8200   36.9800 N   0  0  0  0  0  0  0  0  0  0  0  0
   28.4700   27.4000   37.3100 N   0  0  0  0  0  0  0  0  0  0  0  0
   29.4000   27.6300   36.3700 C   0  0  0  0  0  0  0  0  0  0  0  0
   30.6600   28.0500   36.8000 C   0  0  0  0  0  0  0  0  0  0  0  0
   31.5700   28.3600   35.7800 C   0  0  0  0  0  0  0  0  0  0  0  0
   31.3700   28.1000   34.4300 C   0  0  0  0  0  0  0  0  0  0  0  0
   30.1200   27.5900   34.0500 C   0  0  0  0  0  0  0  0  0  0  0  0
   29.1500   27.3400   35.0300 C   0  0  0  0  0  0  0  0  0  0  0  0
   27.8800   26.8900   34.6600 C   0  0  0  0  0  0  0  0  0  0  0  0
   27.4800   26.6100   33.3700 N   0  0  0  0  0  0  0  0  0  0  0  0
   23.1718   26.0745   35.9587 C   0  0  0  0  0  0  0  0  0  0  0  0
   22.7839   25.8549   34.6619 N   0  0  0  0  0  0  0  0  0  0  0  0
   21.4948   25.5860   34.3166 C   0  0  0  0  0  0  0  0  0  0  0  0
   20.5372   25.5427   35.3181 C   0  0  0  0  0  0  0  0  0  0  0  0
   19.1910   25.2972   35.1618 O   0  0  0  0  0  0  0  0  0  0  0  0
   18.5307   25.3529   36.4259 C   0  0  1  0  0  0  0  0  0  0  0  0
   17.8309   24.0445   36.6986 C   0  0  0  0  0  0  0  0  0  0  0  0
   16.3869   24.0028   37.1018 C   0  0  0  0  0  0  0  0  0  0  0  0
   18.4488   22.9955   36.5932 O   0  0  0  0  0  0  0  0  0  0  0  0
   19.6483   25.6444   37.4679 C   0  0  0  0  0  0  0  0  0  0  0  0
   20.8726   25.7542   36.6216 C   0  0  0  0  0  0  0  0  0  0  0  0
   22.1995   26.0226   36.9964 C   0  0  0  0  0  0  0  0  0  0  0  0
   22.5654   26.2592   38.4379 C   0  0  0  0  0  0  0  0  0  0  0  0
  1  2  1  0
  2  3  2  0
  2  4  1  0
  4  5  2  0
  5  6  1  0
  6  7  2  0
  7  8  1  0
  8  9  2  0
  9 10  1  0
 10 11  2  0
 11 12  1  0
 12 13  2  0
 13 14  1  0
  1 15  1  0
 15 16  2  0
 16 17  1  0
 17 18  2  0
 18 19  1  0
 19 20  1  0
 20 21  1  1
 21 22  1  0
 21 23  2  0
 20 24  1  0
 24 25  1  0
 25 26  2  0
 26 27  1  0
 13  4  1  0
 26 15  1  0
 12  7  1  0
 25 18  1  0
M  END
>  <AAScore>  (1) 
11195.530128930835

>  <RootName>  (1) 
./4ZLY/04_DeltaGEst/trajectory_01/rank_00/lead_0309

$$$$
