confid_4
     RDKit          3D

 28 31  0  0  0  0  0  0  0  0999 V2000
   24.5500   26.3900   36.2500 N   0  0  0  0  0  0  0  0  0  0  0  0
   25.6000   26.1300   35.4000 C   0  0  0  0  0  0  0  0  0  0  0  0
   25.4300   25.4300   34.4200 O   0  0  0  0  0  0  0  0  0  0  0  0
   26.9800   26.6300   35.7100 C   0  0  0  0  0  0  0  0  0  0  0  0
   27.3200   26.8200   36.9800 N   0  0  0  0  0  0  0  0  0  0  0  0
   28.4700   27.4000   37.3100 N   0  0  0  0  0  0  0  0  0  0  0  0
   29.4000   27.6300   36.3700 C   0  0  0  0  0  0  0  0  0  0  0  0
   30.6600   28.0500   36.8000 C   0  0  0  0  0  0  0  0  0  0  0  0
   31.5700   28.3600   35.7800 C   0  0  0  0  0  0  0  0  0  0  0  0
   31.3700   28.1000   34.4300 C   0  0  0  0  0  0  0  0  0  0  0  0
   30.1200   27.5900   34.0500 C   0  0  0  0  0  0  0  0  0  0  0  0
   29.1500   27.3400   35.0300 C   0  0  0  0  0  0  0  0  0  0  0  0
   27.8800   26.8900   34.6600 C   0  0  0  0  0  0  0  0  0  0  0  0
   27.4800   26.6100   33.3700 N   0  0  0  0  0  0  0  0  0  0  0  0
   30.9917   28.2804   38.2262 C   0  0  0  0  0  0  0  0  0  0  0  0
   31.0742   27.1708   39.0816 C   0  0  0  0  0  0  0  0  0  0  0  0
   31.4020   27.3327   40.4352 C   0  0  0  0  0  0  0  0  0  0  0  0
   31.5817   26.1386   41.3281 C   0  0  0  0  0  0  0  0  0  0  0  0
   30.5948   26.1513   42.4112 N   0  0  0  0  0  0  0  0  0  0  0  0
   29.5331   25.1434   42.4585 C   0  0  0  0  0  0  0  0  0  0  0  0
   30.7449   27.0541   43.5209 C   0  0  0  0  0  0  0  0  0  0  0  0
   30.5571   26.6297   44.6932 O   0  0  0  0  0  0  0  0  0  0  0  0
   30.9781   28.5270   43.3187 C   0  0  0  0  0  0  0  0  0  0  0  0
   31.9276   28.8061   42.2930 O   0  0  0  0  0  0  0  0  0  0  0  0
   31.6327   28.6183   40.9415 C   0  0  0  0  0  0  0  0  0  0  0  0
   31.5720   29.7272   40.0934 C   0  0  0  0  0  0  0  0  0  0  0  0
   31.2305   29.5776   38.7396 C   0  0  0  0  0  0  0  0  0  0  0  0
   31.1434   30.8024   37.8671 C   0  0  0  0  0  0  0  0  0  0  0  0
  1  2  1  0
  2  3  2  0
  2  4  1  0
  4  5  2  0
  5  6  1  0
  6  7  2  0
  7  8  1  0
  8  9  2  0
  9 10  1  0
 10 11  2  0
 11 12  1  0
 12 13  2  0
 13 14  1  0
  8 15  1  0
 15 16  2  0
 16 17  1  0
 17 18  1  0
 18 19  1  0
 19 20  1  0
 19 21  1  0
 21 22  2  0
 21 23  1  0
 23 24  1  0
 24 25  1  0
 25 26  1  0
 26 27  2  0
 27 28  1  0
 13  4  1  0
 27 15  1  0
 12  7  1  0
 25 17  2  0
M  END
>  <AAScore>  (1) 
21.539946957606546

>  <RootName>  (1) 
./4ZLY/04_DeltaGEst/trajectory_01/rank_01/lead_0435

$$$$
