confid_0
     RDKit          3D

 29 33  0  0  0  0  0  0  0  0999 V2000
   24.4800   26.1000   36.1300 N   0  0  0  0  0  0  0  0  0  0  0  0
   25.2500   26.2500   34.9900 C   0  0  0  0  0  0  0  0  0  0  0  0
   24.7400   25.7600   33.9900 O   0  0  0  0  0  0  0  0  0  0  0  0
   26.5900   26.8900   34.9600 C   0  0  0  0  0  0  0  0  0  0  0  0
   27.0600   27.2400   36.1600 N   0  0  0  0  0  0  0  0  0  0  0  0
   28.3000   27.7100   36.2400 N   0  0  0  0  0  0  0  0  0  0  0  0
   29.0500   27.9600   35.1500 C   0  0  0  0  0  0  0  0  0  0  0  0
   30.3400   28.4900   35.2600 C   0  0  0  0  0  0  0  0  0  0  0  0
   31.1100   28.8200   34.1400 C   0  0  0  0  0  0  0  0  0  0  0  0
   30.5200   28.6700   32.8800 C   0  0  0  0  0  0  0  0  0  0  0  0
   29.2900   28.0200   32.7700 C   0  0  0  0  0  0  0  0  0  0  0  0
   28.5200   27.7100   33.8900 C   0  0  0  0  0  0  0  0  0  0  0  0
   27.2700   27.0800   33.7600 C   0  0  0  0  0  0  0  0  0  0  0  0
   26.7500   26.8800   32.4900 N   0  0  0  0  0  0  0  0  0  0  0  0
   23.5455   25.0376   36.3973 C   0  0  0  0  0  0  0  0  0  0  0  0
   22.8917   25.0775   37.5250 N   0  0  0  0  0  0  0  0  0  0  0  0
   21.9864   24.1299   38.1132 C   0  0  0  0  0  0  0  0  0  0  0  0
   22.1687   22.8240   37.9843 C   0  0  0  0  0  0  0  0  0  0  0  0
   22.7585   21.5894   37.3144 C   0  0  1  0  0  0  0  0  0  0  0  0
   24.2921   21.6878   37.3042 C   0  0  0  0  0  0  0  0  0  0  0  0
   24.7796   22.4211   36.1164 N   0  0  0  0  0  0  0  0  0  0  0  0
   26.1845   22.2906   35.7133 C   0  0  0  0  0  0  0  0  0  0  0  0
   26.2828   21.5914   34.4812 O   0  0  0  0  0  0  0  0  0  0  0  0
   26.1223   22.4623   33.3703 C   0  0  0  0  0  0  0  0  0  0  0  0
   24.6651   22.4843   32.8483 C   0  0  0  0  0  0  0  0  0  0  0  0
   23.5939   22.1930   33.9097 C   0  0  0  0  0  0  0  0  0  0  0  0
   23.8520   22.9659   35.1631 C   0  0  0  0  0  0  0  0  0  0  0  0
   23.2269   24.0897   35.3688 N   0  0  0  0  0  0  0  0  0  0  0  0
   22.0332   21.4042   38.5320 C   0  0  0  0  0  0  0  0  0  0  0  0
  1  2  1  0
  2  3  2  0
  2  4  1  0
  4  5  2  0
  5  6  1  0
  6  7  2  0
  7  8  1  0
  8  9  2  0
  9 10  1  0
 10 11  2  0
 11 12  1  0
 12 13  2  0
 13 14  1  0
  1 15  1  0
 15 16  2  0
 16 17  1  0
 17 18  2  0
 18 19  1  0
 19 20  1  1
 20 21  1  0
 21 22  1  0
 22 23  1  0
 23 24  1  0
 24 25  1  0
 25 26  1  0
 26 27  1  0
 27 28  2  0
 19 29  1  0
 13  4  1  0
 28 15  1  0
 12  7  1  0
 29 18  1  0
 27 21  1  0
M  END
>  <AAScore>  (1) 
1757.0680761000413

>  <RootName>  (1) 
./4ZLY/04_DeltaGEst/trajectory_00/rank_00/lead_0347

$$$$
