confid_17
     RDKit          3D

 28 31  0  0  0  0  0  0  0  0999 V2000
   24.5500   26.3900   36.2500 N   0  0  0  0  0  0  0  0  0  0  0  0
   25.6000   26.1300   35.4000 C   0  0  0  0  0  0  0  0  0  0  0  0
   25.4300   25.4300   34.4200 O   0  0  0  0  0  0  0  0  0  0  0  0
   26.9800   26.6300   35.7100 C   0  0  0  0  0  0  0  0  0  0  0  0
   27.3200   26.8200   36.9800 N   0  0  0  0  0  0  0  0  0  0  0  0
   28.4700   27.4000   37.3100 N   0  0  0  0  0  0  0  0  0  0  0  0
   29.4000   27.6300   36.3700 C   0  0  0  0  0  0  0  0  0  0  0  0
   30.6600   28.0500   36.8000 C   0  0  0  0  0  0  0  0  0  0  0  0
   31.5700   28.3600   35.7800 C   0  0  0  0  0  0  0  0  0  0  0  0
   31.3700   28.1000   34.4300 C   0  0  0  0  0  0  0  0  0  0  0  0
   30.1200   27.5900   34.0500 C   0  0  0  0  0  0  0  0  0  0  0  0
   29.1500   27.3400   35.0300 C   0  0  0  0  0  0  0  0  0  0  0  0
   27.8800   26.8900   34.6600 C   0  0  0  0  0  0  0  0  0  0  0  0
   27.4800   26.6100   33.3700 N   0  0  0  0  0  0  0  0  0  0  0  0
   23.1628   26.2298   35.9061 C   0  0  0  0  0  0  0  0  0  0  0  0
   22.2748   25.9072   36.8849 N   0  0  0  0  0  0  0  0  0  0  0  0
   20.9469   25.7615   36.6381 C   0  0  0  0  0  0  0  0  0  0  0  0
   20.4440   25.9663   35.3471 C   0  0  0  0  0  0  0  0  0  0  0  0
   18.9873   25.7745   35.0540 C   0  0  0  0  0  0  0  0  0  0  0  0
   18.5388   26.7599   33.9794 C   0  0  0  0  0  0  0  0  0  0  0  0
   19.3794   26.6354   32.7777 N   0  0  0  0  0  0  0  0  0  0  0  0
   18.7847   26.8653   31.4790 C   0  0  0  0  0  0  0  0  0  0  0  0
   17.6264   27.3585   31.3966 O   0  0  0  0  0  0  0  0  0  0  0  0
   19.4833   26.4780   30.2023 C   0  0  0  0  0  0  0  0  0  0  0  0
   19.3124   24.9880   29.9270 C   0  0  0  0  0  0  0  0  0  0  0  0
   20.8451   26.4977   32.8947 C   0  0  0  0  0  0  0  0  0  0  0  0
   21.3292   26.3159   34.3151 C   0  0  0  0  0  0  0  0  0  0  0  0
   22.6950   26.4516   34.5993 C   0  0  0  0  0  0  0  0  0  0  0  0
  1  2  1  0
  2  3  2  0
  2  4  1  0
  4  5  2  0
  5  6  1  0
  6  7  2  0
  7  8  1  0
  8  9  2  0
  9 10  1  0
 10 11  2  0
 11 12  1  0
 12 13  2  0
 13 14  1  0
  1 15  1  0
 15 16  2  0
 16 17  1  0
 17 18  2  0
 18 19  1  0
 19 20  1  0
 20 21  1  0
 21 22  1  0
 22 23  2  0
 22 24  1  0
 24 25  1  0
 21 26  1  0
 26 27  1  0
 27 28  2  0
 13  4  1  0
 28 15  1  0
 12  7  1  0
 27 18  1  0
M  END
>  <AAScore>  (1) 
1178.9241871044364

>  <RootName>  (1) 
./4ZLY/04_DeltaGEst/trajectory_01/rank_00/lead_0374

$$$$
