confid_15
     RDKit          3D

 28 31  0  0  0  0  0  0  0  0999 V2000
   24.4800   26.1000   36.1300 N   0  0  0  0  0  0  0  0  0  0  0  0
   25.2500   26.2500   34.9900 C   0  0  0  0  0  0  0  0  0  0  0  0
   24.7400   25.7600   33.9900 O   0  0  0  0  0  0  0  0  0  0  0  0
   26.5900   26.8900   34.9600 C   0  0  0  0  0  0  0  0  0  0  0  0
   27.0600   27.2400   36.1600 N   0  0  0  0  0  0  0  0  0  0  0  0
   28.3000   27.7100   36.2400 N   0  0  0  0  0  0  0  0  0  0  0  0
   29.0500   27.9600   35.1500 C   0  0  0  0  0  0  0  0  0  0  0  0
   30.3400   28.4900   35.2600 C   0  0  0  0  0  0  0  0  0  0  0  0
   31.1100   28.8200   34.1400 C   0  0  0  0  0  0  0  0  0  0  0  0
   30.5200   28.6700   32.8800 C   0  0  0  0  0  0  0  0  0  0  0  0
   29.2900   28.0200   32.7700 C   0  0  0  0  0  0  0  0  0  0  0  0
   28.5200   27.7100   33.8900 C   0  0  0  0  0  0  0  0  0  0  0  0
   27.2700   27.0800   33.7600 C   0  0  0  0  0  0  0  0  0  0  0  0
   26.7500   26.8800   32.4900 N   0  0  0  0  0  0  0  0  0  0  0  0
   23.0419   25.9843   36.1551 C   0  0  0  0  0  0  0  0  0  0  0  0
   22.3678   26.3571   35.0962 N   0  0  0  0  0  0  0  0  0  0  0  0
   20.9715   26.4227   34.7519 C   0  0  0  0  0  0  0  0  0  0  0  0
   19.9450   26.3059   35.6000 C   0  0  0  0  0  0  0  0  0  0  0  0
   18.5232   26.2258   35.1202 C   0  0  0  0  0  0  0  0  0  0  0  0
   17.7582   25.8937   36.3122 N   0  0  0  0  0  0  0  0  0  0  0  0
   18.6375   25.8283   37.4290 C   0  0  0  0  0  0  0  0  0  0  0  0
   18.2480   25.5796   38.6018 O   0  0  0  0  0  0  0  0  0  0  0  0
   20.0478   26.1418   37.0780 C   0  0  1  0  0  0  0  0  0  0  0  0
   21.0056   25.0070   37.4264 C   0  0  0  0  0  0  0  0  0  0  0  0
   22.4357   25.5324   37.4679 C   0  0  0  0  0  0  0  0  0  0  0  0
   16.3366   25.6780   36.3454 C   0  0  0  0  0  0  0  0  0  0  0  0
   15.7651   25.3889   37.4311 O   0  0  0  0  0  0  0  0  0  0  0  0
   15.5169   25.7882   35.0977 C   0  0  0  0  0  0  0  0  0  0  0  0
  1  2  1  0
  2  3  2  0
  2  4  1  0
  4  5  2  0
  5  6  1  0
  6  7  2  0
  7  8  1  0
  8  9  2  0
  9 10  1  0
 10 11  2  0
 11 12  1  0
 12 13  2  0
 13 14  1  0
  1 15  1  0
 15 16  2  0
 16 17  1  0
 17 18  2  0
 18 19  1  0
 19 20  1  0
 20 21  1  0
 21 22  2  0
 21 23  1  0
 23 24  1  6
 24 25  1  0
 20 26  1  0
 26 27  2  0
 26 28  1  0
 13  4  1  0
 25 15  1  0
 12  7  1  0
 23 18  1  0
M  END
>  <AAScore>  (1) 
225.26628675533425

>  <RootName>  (1) 
./4ZLY/04_DeltaGEst/trajectory_00/rank_01/lead_0172

$$$$
