confid_13
     RDKit          3D

 29 32  0  0  0  0  0  0  0  0999 V2000
   24.5500   26.3900   36.2500 N   0  0  0  0  0  0  0  0  0  0  0  0
   25.6000   26.1300   35.4000 C   0  0  0  0  0  0  0  0  0  0  0  0
   25.4300   25.4300   34.4200 O   0  0  0  0  0  0  0  0  0  0  0  0
   26.9800   26.6300   35.7100 C   0  0  0  0  0  0  0  0  0  0  0  0
   27.3200   26.8200   36.9800 N   0  0  0  0  0  0  0  0  0  0  0  0
   28.4700   27.4000   37.3100 N   0  0  0  0  0  0  0  0  0  0  0  0
   29.4000   27.6300   36.3700 C   0  0  0  0  0  0  0  0  0  0  0  0
   30.6600   28.0500   36.8000 C   0  0  0  0  0  0  0  0  0  0  0  0
   31.5700   28.3600   35.7800 C   0  0  0  0  0  0  0  0  0  0  0  0
   31.3700   28.1000   34.4300 C   0  0  0  0  0  0  0  0  0  0  0  0
   30.1200   27.5900   34.0500 C   0  0  0  0  0  0  0  0  0  0  0  0
   29.1500   27.3400   35.0300 C   0  0  0  0  0  0  0  0  0  0  0  0
   27.8800   26.8900   34.6600 C   0  0  0  0  0  0  0  0  0  0  0  0
   27.4800   26.6100   33.3700 N   0  0  0  0  0  0  0  0  0  0  0  0
   30.9485   28.3314   38.1748 N   0  0  0  0  0  0  0  0  0  0  0  0
   30.5308   29.6203   38.7439 C   0  0  0  0  0  0  0  0  0  0  0  0
   30.6317   29.6090   40.2722 C   0  0  0  0  0  0  0  0  0  0  0  0
   30.1170   28.3367   40.7907 N   0  0  0  0  0  0  0  0  0  0  0  0
   29.0050   28.3341   41.6958 C   0  0  0  0  0  0  0  0  0  0  0  0
   27.7186   28.5235   41.1818 C   0  0  0  0  0  0  0  0  0  0  0  0
   26.6169   28.4787   42.0376 C   0  0  0  0  0  0  0  0  0  0  0  0
   25.2359   28.7044   41.5097 C   0  0  0  0  0  0  0  0  0  0  0  0
   26.8052   28.2648   43.3657 N   0  0  0  0  0  0  0  0  0  0  0  0
   28.0388   28.0741   43.9083 C   0  0  0  0  0  0  0  0  0  0  0  0
   28.1380   27.8412   45.3877 C   0  0  0  0  0  0  0  0  0  0  0  0
   29.1858   28.1221   43.0806 C   0  0  0  0  0  0  0  0  0  0  0  0
   30.5650   27.9177   43.6610 C   0  0  0  0  0  0  0  0  0  0  0  0
   30.5822   27.0581   40.2349 C   0  0  0  0  0  0  0  0  0  0  0  0
   31.5038   27.2783   39.0307 C   0  0  0  0  0  0  0  0  0  0  0  0
  1  2  1  0
  2  3  2  0
  2  4  1  0
  4  5  2  0
  5  6  1  0
  6  7  2  0
  7  8  1  0
  8  9  2  0
  9 10  1  0
 10 11  2  0
 11 12  1  0
 12 13  2  0
 13 14  1  0
  8 15  1  0
 15 16  1  0
 16 17  1  0
 17 18  1  0
 18 19  1  0
 19 20  2  0
 20 21  1  0
 21 22  1  0
 21 23  2  0
 23 24  1  0
 24 25  1  0
 24 26  2  0
 26 27  1  0
 18 28  1  0
 28 29  1  0
 13  4  1  0
 29 15  1  0
 12  7  1  0
 26 19  1  0
M  END
>  <AAScore>  (1) 
33.83941002481067

>  <RootName>  (1) 
./4ZLY/04_DeltaGEst/trajectory_01/rank_01/lead_0402

$$$$
