confid_11
     RDKit          3D

 27 30  0  0  0  0  0  0  0  0999 V2000
   25.3300   26.2600   34.7600 N   0  0  0  0  0  0  0  0  0  0  0  0
   26.1200   25.9200   33.6900 C   0  0  0  0  0  0  0  0  0  0  0  0
   25.6300   25.1100   32.9400 O   0  0  0  0  0  0  0  0  0  0  0  0
   27.5200   26.3800   33.4600 C   0  0  0  0  0  0  0  0  0  0  0  0
   28.1600   26.6300   34.6100 N   0  0  0  0  0  0  0  0  0  0  0  0
   29.4800   26.8500   34.5700 N   0  0  0  0  0  0  0  0  0  0  0  0
   30.1900   26.7800   33.4400 C   0  0  0  0  0  0  0  0  0  0  0  0
   31.5600   27.0500   33.5000 C   0  0  0  0  0  0  0  0  0  0  0  0
   32.2700   27.2400   32.3100 C   0  0  0  0  0  0  0  0  0  0  0  0
   31.6100   27.2500   31.0800 C   0  0  0  0  0  0  0  0  0  0  0  0
   30.2700   26.8700   31.0600 C   0  0  0  0  0  0  0  0  0  0  0  0
   29.5100   26.6900   32.2300 C   0  0  0  0  0  0  0  0  0  0  0  0
   28.1400   26.4100   32.2000 C   0  0  0  0  0  0  0  0  0  0  0  0
   27.4300   26.1300   31.0500 N   0  0  0  0  0  0  0  0  0  0  0  0
   27.3845   24.7051   30.6611 C   0  0  0  0  0  0  0  0  0  0  0  0
   28.2587   24.5192   29.4492 C   0  0  0  0  0  0  0  0  0  0  0  0
   27.7969   25.4458   28.3947 N   0  0  0  0  0  0  0  0  0  0  0  0
   27.2112   24.8644   27.2014 C   0  0  0  0  0  0  0  0  0  0  0  0
   25.9675   24.9758   26.9768 O   0  0  0  0  0  0  0  0  0  0  0  0
   27.9453   23.9026   26.2563 C   0  0  0  0  0  0  0  0  0  0  0  0
   29.3350   23.8901   26.5159 C   0  0  0  0  0  0  0  0  0  0  0  0
   30.2521   23.5048   25.5932 N   0  0  0  0  0  0  0  0  0  0  0  0
   29.8989   22.8773   24.4739 C   0  0  0  0  0  0  0  0  0  0  0  0
   28.5484   22.8818   24.1784 C   0  0  0  0  0  0  0  0  0  0  0  0
   27.6456   23.3922   25.1057 N   0  0  0  0  0  0  0  0  0  0  0  0
   27.4519   26.8078   28.7503 C   0  0  0  0  0  0  0  0  0  0  0  0
   27.2402   27.1222   30.0233 C   0  0  0  0  0  0  0  0  0  0  0  0
  1  2  1  0
  2  3  2  0
  2  4  1  0
  4  5  2  0
  5  6  1  0
  6  7  2  0
  7  8  1  0
  8  9  2  0
  9 10  1  0
 10 11  2  0
 11 12  1  0
 12 13  2  0
 13 14  1  0
 14 15  1  0
 15 16  1  0
 16 17  1  0
 17 18  1  0
 18 19  2  0
 18 20  1  0
 20 21  2  0
 21 22  1  0
 22 23  2  0
 23 24  1  0
 24 25  2  0
 17 26  1  0
 26 27  2  0
 13  4  1  0
 27 14  1  0
 12  7  1  0
 25 20  1  0
M  END
>  <AAScore>  (1) 
-5.697775365132954

>  <RootName>  (1) 
./4ZLY/04_DeltaGEst/trajectory_03/rank_01/lead_0178

$$$$
