confid_3
     RDKit          3D

 27 29  0  0  0  0  0  0  0  0999 V2000
   24.5700   26.8800   35.5900 N   0  0  0  0  0  0  0  0  0  0  0  0
   25.5000   26.4000   34.6900 C   0  0  0  0  0  0  0  0  0  0  0  0
   25.1700   25.5200   33.9100 O   0  0  0  0  0  0  0  0  0  0  0  0
   26.8400   27.0200   34.7400 C   0  0  0  0  0  0  0  0  0  0  0  0
   27.3800   27.2800   35.9400 N   0  0  0  0  0  0  0  0  0  0  0  0
   28.6200   27.7400   36.0300 N   0  0  0  0  0  0  0  0  0  0  0  0
   29.3800   28.0000   34.9600 C   0  0  0  0  0  0  0  0  0  0  0  0
   30.6700   28.5000   35.1300 C   0  0  0  0  0  0  0  0  0  0  0  0
   31.5400   28.6100   34.0300 C   0  0  0  0  0  0  0  0  0  0  0  0
   31.0900   28.2200   32.7700 C   0  0  0  0  0  0  0  0  0  0  0  0
   29.8000   27.7000   32.6000 C   0  0  0  0  0  0  0  0  0  0  0  0
   28.9600   27.5500   33.7100 C   0  0  0  0  0  0  0  0  0  0  0  0
   27.6600   27.0300   33.5900 C   0  0  0  0  0  0  0  0  0  0  0  0
   27.1600   26.7400   32.3400 N   0  0  0  0  0  0  0  0  0  0  0  0
   33.1652   29.2649   34.2349 S   0  0  0  0  0  6  0  0  0  0  0  0
   34.1038   28.5629   33.2930 O   0  0  0  0  0  0  0  0  0  0  0  0
   33.6358   29.0102   35.6400 O   0  0  0  0  0  0  0  0  0  0  0  0
   33.1953   30.9761   33.9147 N   0  0  0  0  0  0  0  0  0  0  0  0
   32.2724   31.6761   34.8203 C   0  0  0  0  0  0  0  0  0  0  0  0
   32.3372   33.2028   34.5576 C   0  0  1  0  0  0  0  0  0  0  0  0
   33.3301   33.9900   35.4990 C   0  0  0  0  0  0  0  0  0  0  0  0
   32.7943   33.9915   36.9522 C   0  0  0  0  0  0  0  0  0  0  0  0
   34.7484   33.3725   35.4974 C   0  0  0  0  0  0  0  0  0  0  0  0
   33.4333   35.4686   35.0517 C   0  0  0  0  0  0  0  0  0  0  0  0
   32.5965   33.4293   33.0443 C   0  0  0  0  0  0  0  0  0  0  0  0
   32.0517   32.3668   32.2910 O   0  0  0  0  0  0  0  0  0  0  0  0
   32.8116   31.1860   32.5052 C   0  0  0  0  0  3  0  0  0  0  0  0
  1  2  1  0
  2  3  2  0
  2  4  1  0
  4  5  2  0
  5  6  1  0
  6  7  2  0
  7  8  1  0
  8  9  2  0
  9 10  1  0
 10 11  2  0
 11 12  1  0
 12 13  2  0
 13 14  1  0
  9 15  1  0
 15 16  2  0
 15 17  2  0
 15 18  1  0
 18 19  1  0
 19 20  1  0
 20 21  1  1
 21 22  1  0
 21 23  1  0
 21 24  1  0
 20 25  1  0
 25 26  1  0
 26 27  1  0
 13  4  1  0
 27 18  1  0
 12  7  1  0
M  RAD  1  27   2
M  END
>  <AAScore>  (1) 
-6.366509860429871

>  <RootName>  (1) 
./4ZLY/04_DeltaGEst/trajectory_05/rank_01/lead_0176

$$$$
