confid_16
     RDKit          3D

 26 28  0  0  0  0  0  0  0  0999 V2000
   24.4800   26.1000   36.1300 N   0  0  0  0  0  0  0  0  0  0  0  0
   25.2500   26.2500   34.9900 C   0  0  0  0  0  0  0  0  0  0  0  0
   24.7400   25.7600   33.9900 O   0  0  0  0  0  0  0  0  0  0  0  0
   26.5900   26.8900   34.9600 C   0  0  0  0  0  0  0  0  0  0  0  0
   27.0600   27.2400   36.1600 N   0  0  0  0  0  0  0  0  0  0  0  0
   28.3000   27.7100   36.2400 N   0  0  0  0  0  0  0  0  0  0  0  0
   29.0500   27.9600   35.1500 C   0  0  0  0  0  0  0  0  0  0  0  0
   30.3400   28.4900   35.2600 C   0  0  0  0  0  0  0  0  0  0  0  0
   31.1100   28.8200   34.1400 C   0  0  0  0  0  0  0  0  0  0  0  0
   30.5200   28.6700   32.8800 C   0  0  0  0  0  0  0  0  0  0  0  0
   29.2900   28.0200   32.7700 C   0  0  0  0  0  0  0  0  0  0  0  0
   28.5200   27.7100   33.8900 C   0  0  0  0  0  0  0  0  0  0  0  0
   27.2700   27.0800   33.7600 C   0  0  0  0  0  0  0  0  0  0  0  0
   26.7500   26.8800   32.4900 N   0  0  0  0  0  0  0  0  0  0  0  0
   23.5148   25.0458   36.3399 C   0  0  0  0  0  0  0  0  0  0  0  0
   23.5447   23.9302   35.5564 N   0  0  0  0  0  0  0  0  0  0  0  0
   22.6774   22.8937   35.7221 C   0  0  0  0  0  0  0  0  0  0  0  0
   22.7371   21.7696   34.8927 O   0  0  0  0  0  0  0  0  0  0  0  0
   23.6912   21.6306   33.8453 C   0  0  0  0  0  0  0  0  0  0  0  0
   23.4416   20.4599   33.1558 F   0  0  0  0  0  0  0  0  0  0  0  0
   24.9681   21.5809   34.3748 F   0  0  0  0  0  0  0  0  0  0  0  0
   21.7162   22.9523   36.7315 C   0  0  0  0  0  0  0  0  0  0  0  0
   21.6581   24.0739   37.5582 C   0  0  0  0  0  0  0  0  0  0  0  0
   22.5575   25.1305   37.3736 C   0  0  0  0  0  0  0  0  0  0  0  0
   22.4686   26.2850   38.2336 C   0  0  0  0  0  0  0  0  0  0  0  0
   22.3968   27.2112   38.9238 N   0  0  0  0  0  0  0  0  0  0  0  0
  1  2  1  0
  2  3  2  0
  2  4  1  0
  4  5  2  0
  5  6  1  0
  6  7  2  0
  7  8  1  0
  8  9  2  0
  9 10  1  0
 10 11  2  0
 11 12  1  0
 12 13  2  0
 13 14  1  0
  1 15  1  0
 15 16  2  0
 16 17  1  0
 17 18  1  0
 18 19  1  0
 19 20  1  0
 19 21  1  0
 17 22  2  0
 22 23  1  0
 23 24  2  0
 24 25  1  0
 25 26  3  0
 13  4  1  0
 24 15  1  0
 12  7  1  0
M  END
>  <AAScore>  (1) 
131.06602863878084

>  <RootName>  (1) 
./4ZLY/04_DeltaGEst/trajectory_00/rank_01/lead_0499

$$$$
