confid_18
     RDKit          3D

 29 32  0  0  0  0  0  0  0  0999 V2000
   24.6900   26.1200   35.5300 N   0  0  0  0  0  0  0  0  0  0  0  0
   25.6600   25.6700   34.6600 C   0  0  0  0  0  0  0  0  0  0  0  0
   25.2400   25.0100   33.7200 O   0  0  0  0  0  0  0  0  0  0  0  0
   27.0300   26.2200   34.8800 C   0  0  0  0  0  0  0  0  0  0  0  0
   27.3500   26.7300   36.0700 N   0  0  0  0  0  0  0  0  0  0  0  0
   28.5700   27.1800   36.3300 N   0  0  0  0  0  0  0  0  0  0  0  0
   29.5300   27.1100   35.3900 C   0  0  0  0  0  0  0  0  0  0  0  0
   30.8300   27.5700   35.6500 C   0  0  0  0  0  0  0  0  0  0  0  0
   31.8500   27.5400   34.6900 C   0  0  0  0  0  0  0  0  0  0  0  0
   31.5100   27.1200   33.4000 C   0  0  0  0  0  0  0  0  0  0  0  0
   30.2200   26.6300   33.1100 C   0  0  0  0  0  0  0  0  0  0  0  0
   29.2400   26.6600   34.1000 C   0  0  0  0  0  0  0  0  0  0  0  0
   27.9300   26.2600   33.8100 C   0  0  0  0  0  0  0  0  0  0  0  0
   27.5200   25.7100   32.6100 N   0  0  0  0  0  0  0  0  0  0  0  0
   31.1602   28.0456   36.9754 N   0  0  0  0  0  0  0  0  0  0  0  0
   31.2299   27.0461   38.0535 C   0  0  0  0  0  0  0  0  0  0  0  0
   30.7777   27.5764   39.4227 C   0  0  0  0  0  0  0  0  0  0  0  0
   29.3097   28.0356   39.4870 C   0  0  0  0  0  0  0  0  0  0  0  0
   28.8766   29.2158   38.6286 C   0  0  0  0  0  0  0  0  0  0  0  0
   27.5704   29.4958   38.3555 N   0  0  0  0  0  0  0  0  0  0  0  0
   27.5476   30.5841   37.5564 C   0  0  0  0  0  0  0  0  0  0  0  0
   28.8264   31.0223   37.3312 C   0  0  0  0  0  0  0  0  0  0  0  0
   29.1775   32.0988   36.5856 F   0  0  0  0  0  0  0  0  0  0  0  0
   29.6795   30.1864   38.0191 C   0  0  0  0  0  0  0  0  0  0  0  0
   31.1725   30.3315   38.0368 C   0  0  0  0  0  0  0  0  0  0  0  0
   31.8777   29.3303   37.1073 C   0  0  0  0  0  0  0  0  0  0  0  0
   26.3926   28.8162   38.8411 C   0  0  0  0  0  0  0  0  0  0  0  0
   26.4608   28.0515   39.8403 O   0  0  0  0  0  0  0  0  0  0  0  0
   25.0513   29.0639   38.2213 C   0  0  0  0  0  0  0  0  0  0  0  0
  1  2  1  0
  2  3  2  0
  2  4  1  0
  4  5  2  0
  5  6  1  0
  6  7  2  0
  7  8  1  0
  8  9  2  0
  9 10  1  0
 10 11  2  0
 11 12  1  0
 12 13  2  0
 13 14  1  0
  8 15  1  0
 15 16  1  0
 16 17  1  0
 17 18  1  0
 18 19  1  0
 19 20  1  0
 20 21  1  0
 21 22  2  0
 22 23  1  0
 22 24  1  0
 24 25  1  0
 25 26  1  0
 20 27  1  0
 27 28  2  0
 27 29  1  0
 13  4  1  0
 26 15  1  0
 12  7  1  0
 24 19  2  0
M  END
>  <AAScore>  (1) 
2.3995106647636395

>  <RootName>  (1) 
./4ZLY/04_DeltaGEst/trajectory_02/rank_01/lead_0283

$$$$
