confid_1
     RDKit          3D

 30 34  0  0  0  0  0  0  0  0999 V2000
   24.2000   26.2400   35.6900 N   0  0  0  0  0  0  0  0  0  0  0  0
   24.8500   26.2800   34.4800 C   0  0  0  0  0  0  0  0  0  0  0  0
   24.3100   25.7400   33.5400 O   0  0  0  0  0  0  0  0  0  0  0  0
   26.1800   26.9700   34.4700 C   0  0  0  0  0  0  0  0  0  0  0  0
   26.6500   27.6000   35.5500 N   0  0  0  0  0  0  0  0  0  0  0  0
   27.7900   28.2700   35.6200 N   0  0  0  0  0  0  0  0  0  0  0  0
   28.5400   28.3000   34.5100 C   0  0  0  0  0  0  0  0  0  0  0  0
   29.7700   28.9400   34.5600 C   0  0  0  0  0  0  0  0  0  0  0  0
   30.7000   28.8900   33.5000 C   0  0  0  0  0  0  0  0  0  0  0  0
   30.3700   28.1400   32.3700 C   0  0  0  0  0  0  0  0  0  0  0  0
   29.1200   27.5200   32.2800 C   0  0  0  0  0  0  0  0  0  0  0  0
   28.2100   27.6100   33.3300 C   0  0  0  0  0  0  0  0  0  0  0  0
   26.9700   26.9700   33.3100 C   0  0  0  0  0  0  0  0  0  0  0  0
   26.5300   26.2400   32.2200 N   0  0  0  0  0  0  0  0  0  0  0  0
   30.1330   29.6984   35.7277 N   0  0  0  0  0  0  0  0  0  0  0  0
   29.3927   30.9215   36.0639 C   0  0  0  0  0  0  0  0  0  0  0  0
   30.2600   31.8601   36.9072 C   0  0  0  0  0  0  0  0  0  0  0  0
   31.6548   31.7709   36.4350 N   0  0  0  0  0  0  0  0  0  0  0  0
   32.4761   32.8783   36.9638 C   0  0  0  0  0  0  0  0  0  0  0  0
   32.2159   34.1372   36.1908 C   0  0  0  0  0  0  0  0  0  0  0  0
   32.2343   35.4260   36.6947 C   0  0  0  0  0  0  0  0  0  0  0  0
   32.0431   36.2646   35.6129 C   0  0  0  0  0  0  0  0  0  0  0  0
   31.9131   35.5349   34.4858 N   0  0  0  0  0  0  0  0  0  0  0  0
   31.7848   36.0578   33.1288 C   0  0  0  0  0  0  0  0  0  0  0  0
   33.1749   36.3365   32.5455 C   0  0  0  0  0  0  0  0  0  0  0  0
   33.2769   36.2315   31.0315 C   0  0  0  0  0  0  0  0  0  0  0  0
   33.8665   35.1392   31.9116 C   0  0  0  0  0  0  0  0  0  0  0  0
   32.0396   34.2375   34.8234 C   0  0  0  0  0  0  0  0  0  0  0  0
   32.2456   30.4616   36.7930 C   0  0  0  0  0  0  0  0  0  0  0  0
   31.2737   29.2848   36.5533 C   0  0  0  0  0  0  0  0  0  0  0  0
  1  2  1  0
  2  3  2  0
  2  4  1  0
  4  5  2  0
  5  6  1  0
  6  7  2  0
  7  8  1  0
  8  9  2  0
  9 10  1  0
 10 11  2  0
 11 12  1  0
 12 13  2  0
 13 14  1  0
  8 15  1  0
 15 16  1  0
 16 17  1  0
 17 18  1  0
 18 19  1  0
 19 20  1  0
 20 21  1  0
 21 22  2  0
 22 23  1  0
 23 24  1  0
 24 25  1  0
 25 26  1  0
 26 27  1  0
 23 28  1  0
 18 29  1  0
 29 30  1  0
 13  4  1  0
 30 15  1  0
 12  7  1  0
 28 20  2  0
 27 25  1  0
M  END
>  <AAScore>  (1) 
-7.531411619587498

>  <RootName>  (1) 
./4ZLY/04_DeltaGEst/trajectory_04/rank_01/lead_0324

$$$$
