confid_4
     RDKit          3D

 26 28  0  0  0  0  0  0  0  0999 V2000
   24.5700   26.8800   35.5900 N   0  0  0  0  0  0  0  0  0  0  0  0
   25.5000   26.4000   34.6900 C   0  0  0  0  0  0  0  0  0  0  0  0
   25.1700   25.5200   33.9100 O   0  0  0  0  0  0  0  0  0  0  0  0
   26.8400   27.0200   34.7400 C   0  0  0  0  0  0  0  0  0  0  0  0
   27.3800   27.2800   35.9400 N   0  0  0  0  0  0  0  0  0  0  0  0
   28.6200   27.7400   36.0300 N   0  0  0  0  0  0  0  0  0  0  0  0
   29.3800   28.0000   34.9600 C   0  0  0  0  0  0  0  0  0  0  0  0
   30.6700   28.5000   35.1300 C   0  0  0  0  0  0  0  0  0  0  0  0
   31.5400   28.6100   34.0300 C   0  0  0  0  0  0  0  0  0  0  0  0
   31.0900   28.2200   32.7700 C   0  0  0  0  0  0  0  0  0  0  0  0
   29.8000   27.7000   32.6000 C   0  0  0  0  0  0  0  0  0  0  0  0
   28.9600   27.5500   33.7100 C   0  0  0  0  0  0  0  0  0  0  0  0
   27.6600   27.0300   33.5900 C   0  0  0  0  0  0  0  0  0  0  0  0
   27.1600   26.7400   32.3400 N   0  0  0  0  0  0  0  0  0  0  0  0
   33.1787   29.2330   34.2439 S   0  0  0  0  0  6  0  0  0  0  0  0
   33.1847   30.2251   35.3730 O   0  0  0  0  0  0  0  0  0  0  0  0
   33.6034   29.9446   32.9900 O   0  0  0  0  0  0  0  0  0  0  0  0
   34.3699   27.9374   34.6058 C   0  0  0  0  0  0  0  0  0  0  0  0
   34.2741   26.7342   33.6732 C   0  0  0  0  0  0  0  0  0  0  0  0
   33.7565   25.8714   34.7437 N   0  0  0  0  0  0  0  0  0  0  0  0
   34.4392   24.5924   35.0961 C   0  0  2  0  0  0  0  0  0  0  0  0
   35.9723   24.4430   34.7533 C   0  0  0  0  0  0  0  0  0  0  0  0
   36.4891   23.0305   35.0995 C   0  0  0  0  0  0  0  0  0  0  0  0
   36.8552   25.4566   35.5017 C   0  0  0  0  0  0  0  0  0  0  0  0
   33.6135   23.4728   34.4429 C   0  0  0  0  0  0  0  0  0  0  0  0
   33.9181   26.9733   35.6974 C   0  0  0  0  0  0  0  0  0  0  0  0
  1  2  1  0
  2  3  2  0
  2  4  1  0
  4  5  2  0
  5  6  1  0
  6  7  2  0
  7  8  1  0
  8  9  2  0
  9 10  1  0
 10 11  2  0
 11 12  1  0
 12 13  2  0
 13 14  1  0
  9 15  1  0
 15 16  2  0
 15 17  2  0
 15 18  1  0
 18 19  1  0
 19 20  1  0
 20 21  1  0
 21 22  1  0
 22 23  1  0
 22 24  1  0
 21 25  1  6
 20 26  1  0
 13  4  1  0
 26 18  1  0
 12  7  1  0
M  END
>  <AAScore>  (1) 
236.78518256822764

>  <RootName>  (1) 
./4ZLY/04_DeltaGEst/trajectory_05/rank_01/lead_0008

$$$$
