confid_15
     RDKit          3D

 27 30  0  0  0  0  0  0  0  0999 V2000
   24.6900   26.1200   35.5300 N   0  0  0  0  0  0  0  0  0  0  0  0
   25.6600   25.6700   34.6600 C   0  0  0  0  0  0  0  0  0  0  0  0
   25.2400   25.0100   33.7200 O   0  0  0  0  0  0  0  0  0  0  0  0
   27.0300   26.2200   34.8800 C   0  0  0  0  0  0  0  0  0  0  0  0
   27.3500   26.7300   36.0700 N   0  0  0  0  0  0  0  0  0  0  0  0
   28.5700   27.1800   36.3300 N   0  0  0  0  0  0  0  0  0  0  0  0
   29.5300   27.1100   35.3900 C   0  0  0  0  0  0  0  0  0  0  0  0
   30.8300   27.5700   35.6500 C   0  0  0  0  0  0  0  0  0  0  0  0
   31.8500   27.5400   34.6900 C   0  0  0  0  0  0  0  0  0  0  0  0
   31.5100   27.1200   33.4000 C   0  0  0  0  0  0  0  0  0  0  0  0
   30.2200   26.6300   33.1100 C   0  0  0  0  0  0  0  0  0  0  0  0
   29.2400   26.6600   34.1000 C   0  0  0  0  0  0  0  0  0  0  0  0
   27.9300   26.2600   33.8100 C   0  0  0  0  0  0  0  0  0  0  0  0
   27.5200   25.7100   32.6100 N   0  0  0  0  0  0  0  0  0  0  0  0
   23.5764   25.3551   36.0367 C   0  0  0  0  0  0  0  0  0  0  0  0
   23.0105   25.6889   37.1540 N   0  0  0  0  0  0  0  0  0  0  0  0
   21.9296   24.8003   37.3853 C   0  0  0  0  0  0  0  0  0  0  0  0
   21.8190   23.9335   36.3974 C   0  0  0  0  0  0  0  0  0  0  0  0
   20.9691   22.7009   36.3970 C   0  0  0  0  0  0  0  0  0  0  0  0
   21.5796   21.7296   35.4823 N   0  0  0  0  0  0  0  0  0  0  0  0
   20.7706   21.0077   34.5316 C   0  0  0  0  0  0  0  0  0  0  0  0
   19.5395   20.8438   34.7521 O   0  0  0  0  0  0  0  0  0  0  0  0
   21.3577   20.4405   33.2752 C   0  0  0  0  0  0  0  0  0  0  0  0
   23.0471   21.6047   35.5271 C   0  0  0  0  0  0  0  0  0  0  0  0
   23.7298   22.9319   35.1098 C   0  0  0  0  0  0  0  0  0  0  0  0
   22.8551   24.2064   35.3482 C   0  0  2  0  0  0  0  0  0  0  0  0
   22.1403   24.6808   34.0657 C   0  0  0  0  0  0  0  0  0  0  0  0
  1  2  1  0
  2  3  2  0
  2  4  1  0
  4  5  2  0
  5  6  1  0
  6  7  2  0
  7  8  1  0
  8  9  2  0
  9 10  1  0
 10 11  2  0
 11 12  1  0
 12 13  2  0
 13 14  1  0
  1 15  1  0
 15 16  2  0
 16 17  1  0
 17 18  2  0
 18 19  1  0
 19 20  1  0
 20 21  1  0
 21 22  2  0
 21 23  1  0
 20 24  1  0
 24 25  1  0
 25 26  1  0
 26 27  1  6
 13  4  1  0
 26 15  1  0
 12  7  1  0
 26 18  1  0
M  END
>  <AAScore>  (1) 
2121.6090846716074

>  <RootName>  (1) 
./4ZLY/04_DeltaGEst/trajectory_02/rank_00/lead_0331

$$$$
