confid_18
     RDKit          3D

 30 34  0  0  0  0  0  0  0  0999 V2000
   24.5700   26.8800   35.5900 N   0  0  0  0  0  0  0  0  0  0  0  0
   25.5000   26.4000   34.6900 C   0  0  0  0  0  0  0  0  0  0  0  0
   25.1700   25.5200   33.9100 O   0  0  0  0  0  0  0  0  0  0  0  0
   26.8400   27.0200   34.7400 C   0  0  0  0  0  0  0  0  0  0  0  0
   27.3800   27.2800   35.9400 N   0  0  0  0  0  0  0  0  0  0  0  0
   28.6200   27.7400   36.0300 N   0  0  0  0  0  0  0  0  0  0  0  0
   29.3800   28.0000   34.9600 C   0  0  0  0  0  0  0  0  0  0  0  0
   30.6700   28.5000   35.1300 C   0  0  0  0  0  0  0  0  0  0  0  0
   31.5400   28.6100   34.0300 C   0  0  0  0  0  0  0  0  0  0  0  0
   31.0900   28.2200   32.7700 C   0  0  0  0  0  0  0  0  0  0  0  0
   29.8000   27.7000   32.6000 C   0  0  0  0  0  0  0  0  0  0  0  0
   28.9600   27.5500   33.7100 C   0  0  0  0  0  0  0  0  0  0  0  0
   27.6600   27.0300   33.5900 C   0  0  0  0  0  0  0  0  0  0  0  0
   27.1600   26.7400   32.3400 N   0  0  0  0  0  0  0  0  0  0  0  0
   23.1789   26.4933   35.6178 C   0  0  0  0  0  0  0  0  0  0  0  0
   22.6086   25.8807   34.5123 N   0  0  0  0  0  0  0  0  0  0  0  0
   21.2905   25.5068   34.4551 C   0  0  0  0  0  0  0  0  0  0  0  0
   20.5359   25.7820   35.5731 C   0  0  0  0  0  0  0  0  0  0  0  0
   19.2314   25.7134   36.2233 C   0  0  0  0  0  0  0  0  0  0  0  0
   17.8966   25.1518   35.8496 C   0  0  0  0  0  0  0  0  0  0  0  0
   17.7408   23.7758   36.3652 N   0  0  0  0  0  0  0  0  0  0  0  0
   18.7154   22.8482   35.7414 C   0  0  0  0  0  0  0  0  0  0  0  0
   18.2114   21.3967   35.7947 C   0  0  0  0  0  0  0  0  0  0  0  0
   16.9866   21.1911   35.1028 O   0  0  0  0  0  0  0  0  0  0  0  0
   16.1700   22.3521   35.0298 C   0  0  0  0  0  0  0  0  0  0  0  0
   16.3416   23.3018   36.2294 C   0  0  0  0  0  0  0  0  0  0  0  0
   19.7461   26.2932   37.3166 C   0  0  0  0  0  0  0  0  0  0  0  0
   21.0497   26.3750   36.6635 C   0  0  0  0  0  0  0  0  0  0  0  0
   22.3749   26.7656   36.7721 C   0  0  0  0  0  0  0  0  0  0  0  0
   22.8939   27.4199   38.0178 C   0  0  0  0  0  0  0  0  0  0  0  0
  1  2  1  0
  2  3  2  0
  2  4  1  0
  4  5  2  0
  5  6  1  0
  6  7  2  0
  7  8  1  0
  8  9  2  0
  9 10  1  0
 10 11  2  0
 11 12  1  0
 12 13  2  0
 13 14  1  0
  1 15  1  0
 15 16  2  0
 16 17  1  0
 17 18  2  0
 18 19  1  0
 19 20  1  0
 20 21  1  0
 21 22  1  0
 22 23  1  0
 23 24  1  0
 24 25  1  0
 25 26  1  0
 19 27  2  0
 27 28  1  0
 28 29  2  0
 29 30  1  0
 13  4  1  0
 29 15  1  0
 12  7  1  0
 28 18  1  0
 26 21  1  0
M  END
>  <AAScore>  (1) 
1302.367178859634

>  <RootName>  (1) 
./4ZLY/04_DeltaGEst/trajectory_05/rank_00/lead_0022

$$$$
