confid_6
     RDKit          3D

 27 30  0  0  0  0  0  0  0  0999 V2000
   24.4800   26.1000   36.1300 N   0  0  0  0  0  0  0  0  0  0  0  0
   25.2500   26.2500   34.9900 C   0  0  0  0  0  0  0  0  0  0  0  0
   24.7400   25.7600   33.9900 O   0  0  0  0  0  0  0  0  0  0  0  0
   26.5900   26.8900   34.9600 C   0  0  0  0  0  0  0  0  0  0  0  0
   27.0600   27.2400   36.1600 N   0  0  0  0  0  0  0  0  0  0  0  0
   28.3000   27.7100   36.2400 N   0  0  0  0  0  0  0  0  0  0  0  0
   29.0500   27.9600   35.1500 C   0  0  0  0  0  0  0  0  0  0  0  0
   30.3400   28.4900   35.2600 C   0  0  0  0  0  0  0  0  0  0  0  0
   31.1100   28.8200   34.1400 C   0  0  0  0  0  0  0  0  0  0  0  0
   30.5200   28.6700   32.8800 C   0  0  0  0  0  0  0  0  0  0  0  0
   29.2900   28.0200   32.7700 C   0  0  0  0  0  0  0  0  0  0  0  0
   28.5200   27.7100   33.8900 C   0  0  0  0  0  0  0  0  0  0  0  0
   27.2700   27.0800   33.7600 C   0  0  0  0  0  0  0  0  0  0  0  0
   26.7500   26.8800   32.4900 N   0  0  0  0  0  0  0  0  0  0  0  0
   23.4508   25.1135   36.3303 C   0  0  0  0  0  0  0  0  0  0  0  0
   23.2665   24.0986   35.4460 N   0  0  0  0  0  0  0  0  0  0  0  0
   22.3049   23.1622   35.6400 C   0  0  0  0  0  0  0  0  0  0  0  0
   21.4781   23.2156   36.7714 C   0  0  0  0  0  0  0  0  0  0  0  0
   20.4075   22.1542   36.9560 C   0  0  0  0  0  0  0  0  0  0  0  0
   19.0685   22.5668   36.4875 N   0  0  0  0  0  0  0  0  0  0  0  0
   18.3239   23.4908   37.3710 C   0  0  0  0  0  0  0  0  0  0  0  0
   18.8304   24.9525   37.3471 C   0  0  0  0  0  0  0  0  0  0  0  0
   19.6158   25.3551   38.6078 C   0  0  0  0  0  0  0  0  0  0  0  0
   20.8343   24.4714   38.9090 C   0  0  0  0  0  0  0  0  0  0  0  0
   21.6969   24.2665   37.6918 C   0  0  0  0  0  0  0  0  0  0  0  0
   22.6681   25.1840   37.4376 N   0  0  0  0  0  0  0  0  0  0  0  0
   18.9902   22.8768   35.0503 C   0  0  0  0  0  0  0  0  0  0  0  0
  1  2  1  0
  2  3  2  0
  2  4  1  0
  4  5  2  0
  5  6  1  0
  6  7  2  0
  7  8  1  0
  8  9  2  0
  9 10  1  0
 10 11  2  0
 11 12  1  0
 12 13  2  0
 13 14  1  0
  1 15  1  0
 15 16  2  0
 16 17  1  0
 17 18  2  0
 18 19  1  0
 19 20  1  0
 20 21  1  0
 21 22  1  0
 22 23  1  0
 23 24  1  0
 24 25  1  0
 25 26  2  0
 20 27  1  0
 13  4  1  0
 26 15  1  0
 12  7  1  0
 25 18  1  0
M  END
>  <AAScore>  (1) 
584.4807791402458

>  <RootName>  (1) 
./4ZLY/04_DeltaGEst/trajectory_00/rank_00/lead_0273

$$$$
