confid_18
     RDKit          3D

 29 32  0  0  0  0  0  0  0  0999 V2000
   25.3300   26.2600   34.7600 N   0  0  0  0  0  0  0  0  0  0  0  0
   26.1200   25.9200   33.6900 C   0  0  0  0  0  0  0  0  0  0  0  0
   25.6300   25.1100   32.9400 O   0  0  0  0  0  0  0  0  0  0  0  0
   27.5200   26.3800   33.4600 C   0  0  0  0  0  0  0  0  0  0  0  0
   28.1600   26.6300   34.6100 N   0  0  0  0  0  0  0  0  0  0  0  0
   29.4800   26.8500   34.5700 N   0  0  0  0  0  0  0  0  0  0  0  0
   30.1900   26.7800   33.4400 C   0  0  0  0  0  0  0  0  0  0  0  0
   31.5600   27.0500   33.5000 C   0  0  0  0  0  0  0  0  0  0  0  0
   32.2700   27.2400   32.3100 C   0  0  0  0  0  0  0  0  0  0  0  0
   31.6100   27.2500   31.0800 C   0  0  0  0  0  0  0  0  0  0  0  0
   30.2700   26.8700   31.0600 C   0  0  0  0  0  0  0  0  0  0  0  0
   29.5100   26.6900   32.2300 C   0  0  0  0  0  0  0  0  0  0  0  0
   28.1400   26.4100   32.2000 C   0  0  0  0  0  0  0  0  0  0  0  0
   27.4300   26.1300   31.0500 N   0  0  0  0  0  0  0  0  0  0  0  0
   27.5671   24.8158   30.4121 C   0  0  0  0  0  0  0  0  0  0  0  0
   26.4535   24.5869   29.3799 C   0  0  0  0  0  0  0  0  0  0  0  0
   26.2965   25.7174   28.4321 N   0  0  0  0  0  0  0  0  0  0  0  0
   26.8324   25.4660   27.0761 C   0  0  0  0  0  0  0  0  0  0  0  0
   28.2909   25.0624   27.0725 C   0  0  0  0  0  0  0  0  0  0  0  0
   29.2748   25.8558   27.5409 N   0  0  0  0  0  0  0  0  0  0  0  0
   30.3824   25.1231   27.3073 C   0  0  0  0  0  0  0  0  0  0  0  0
   30.1041   23.9504   26.7094 N   0  0  0  0  0  0  0  0  0  0  0  0
   28.7902   23.9138   26.5620 N   0  0  0  0  0  0  0  0  0  0  0  0
   28.0581   22.8345   25.8828 C   0  0  0  0  0  0  0  0  0  0  0  0
   27.4249   23.3448   24.7625 F   0  0  0  0  0  0  0  0  0  0  0  0
   27.1063   22.3081   26.7378 F   0  0  0  0  0  0  0  0  0  0  0  0
   28.9903   21.7042   25.4435 C   0  0  0  0  0  0  0  0  0  0  0  0
   26.6065   27.0699   28.9536 C   0  0  0  0  0  0  0  0  0  0  0  0
   26.5314   27.1358   30.4799 C   0  0  0  0  0  0  0  0  0  0  0  0
  1  2  1  0
  2  3  2  0
  2  4  1  0
  4  5  2  0
  5  6  1  0
  6  7  2  0
  7  8  1  0
  8  9  2  0
  9 10  1  0
 10 11  2  0
 11 12  1  0
 12 13  2  0
 13 14  1  0
 14 15  1  0
 15 16  1  0
 16 17  1  0
 17 18  1  0
 18 19  1  0
 19 20  2  0
 20 21  1  0
 21 22  2  0
 22 23  1  0
 23 24  1  0
 24 25  1  0
 24 26  1  0
 24 27  1  0
 17 28  1  0
 28 29  1  0
 13  4  1  0
 29 14  1  0
 12  7  1  0
 23 19  1  0
M  END
>  <AAScore>  (1) 
-2.5314783729131984

>  <RootName>  (1) 
./4ZLY/04_DeltaGEst/trajectory_03/rank_01/lead_0393

$$$$
