confid_6
     RDKit          3D

 29 33  0  0  0  0  0  0  0  0999 V2000
   24.2000   26.2400   35.6900 N   0  0  0  0  0  0  0  0  0  0  0  0
   24.8500   26.2800   34.4800 C   0  0  0  0  0  0  0  0  0  0  0  0
   24.3100   25.7400   33.5400 O   0  0  0  0  0  0  0  0  0  0  0  0
   26.1800   26.9700   34.4700 C   0  0  0  0  0  0  0  0  0  0  0  0
   26.6500   27.6000   35.5500 N   0  0  0  0  0  0  0  0  0  0  0  0
   27.7900   28.2700   35.6200 N   0  0  0  0  0  0  0  0  0  0  0  0
   28.5400   28.3000   34.5100 C   0  0  0  0  0  0  0  0  0  0  0  0
   29.7700   28.9400   34.5600 C   0  0  0  0  0  0  0  0  0  0  0  0
   30.7000   28.8900   33.5000 C   0  0  0  0  0  0  0  0  0  0  0  0
   30.3700   28.1400   32.3700 C   0  0  0  0  0  0  0  0  0  0  0  0
   29.1200   27.5200   32.2800 C   0  0  0  0  0  0  0  0  0  0  0  0
   28.2100   27.6100   33.3300 C   0  0  0  0  0  0  0  0  0  0  0  0
   26.9700   26.9700   33.3100 C   0  0  0  0  0  0  0  0  0  0  0  0
   26.5300   26.2400   32.2200 N   0  0  0  0  0  0  0  0  0  0  0  0
   22.7793   26.0618   35.8366 C   0  0  0  0  0  0  0  0  0  0  0  0
   22.3570   25.4606   36.9342 N   0  0  0  0  0  0  0  0  0  0  0  0
   21.0018   25.1870   37.3563 C   0  0  0  0  0  0  0  0  0  0  0  0
   20.0536   25.1498   36.4347 C   0  0  0  0  0  0  0  0  0  0  0  0
   20.4295   24.8409   35.1419 O   0  0  0  0  0  0  0  0  0  0  0  0
   20.4991   26.0728   34.4545 C   0  0  1  0  0  0  0  0  0  0  0  0
   20.2839   25.8713   32.9539 C   0  0  0  0  0  0  0  0  0  0  0  0
   19.3914   26.8463   35.1309 C   0  0  0  0  0  0  0  0  0  0  0  0
   18.8048   28.0662   34.7866 C   0  0  0  0  0  0  0  0  0  0  0  0
   17.9013   28.6505   35.6923 C   0  0  0  0  0  0  0  0  0  0  0  0
   17.6370   28.0370   36.9355 C   0  0  0  0  0  0  0  0  0  0  0  0
   18.2696   26.8309   37.2817 C   0  0  0  0  0  0  0  0  0  0  0  0
   19.1093   26.2422   36.3379 C   0  0  0  0  0  0  0  0  0  0  0  0
   21.8560   26.6721   34.7973 C   0  0  0  0  0  0  0  0  0  0  0  0
   22.2221   27.7205   34.1999 O   0  0  0  0  0  0  0  0  0  0  0  0
  1  2  1  0
  2  3  2  0
  2  4  1  0
  4  5  2  0
  5  6  1  0
  6  7  2  0
  7  8  1  0
  8  9  2  0
  9 10  1  0
 10 11  2  0
 11 12  1  0
 12 13  2  0
 13 14  1  0
  1 15  1  0
 15 16  2  0
 16 17  1  0
 17 18  2  0
 18 19  1  0
 19 20  1  0
 20 21  1  6
 20 22  1  0
 22 23  2  0
 23 24  1  0
 24 25  2  0
 25 26  1  0
 26 27  2  0
 20 28  1  0
 28 29  2  0
 13  4  1  0
 28 15  1  0
 12  7  1  0
 27 18  1  0
 27 22  1  0
M  END
>  <AAScore>  (1) 
1002.5735856752716

>  <RootName>  (1) 
./4ZLY/04_DeltaGEst/trajectory_04/rank_00/lead_0326

$$$$
