confid_17
     RDKit          3D

 28 31  0  0  0  0  0  0  0  0999 V2000
   24.6900   26.1200   35.5300 N   0  0  0  0  0  0  0  0  0  0  0  0
   25.6600   25.6700   34.6600 C   0  0  0  0  0  0  0  0  0  0  0  0
   25.2400   25.0100   33.7200 O   0  0  0  0  0  0  0  0  0  0  0  0
   27.0300   26.2200   34.8800 C   0  0  0  0  0  0  0  0  0  0  0  0
   27.3500   26.7300   36.0700 N   0  0  0  0  0  0  0  0  0  0  0  0
   28.5700   27.1800   36.3300 N   0  0  0  0  0  0  0  0  0  0  0  0
   29.5300   27.1100   35.3900 C   0  0  0  0  0  0  0  0  0  0  0  0
   30.8300   27.5700   35.6500 C   0  0  0  0  0  0  0  0  0  0  0  0
   31.8500   27.5400   34.6900 C   0  0  0  0  0  0  0  0  0  0  0  0
   31.5100   27.1200   33.4000 C   0  0  0  0  0  0  0  0  0  0  0  0
   30.2200   26.6300   33.1100 C   0  0  0  0  0  0  0  0  0  0  0  0
   29.2400   26.6600   34.1000 C   0  0  0  0  0  0  0  0  0  0  0  0
   27.9300   26.2600   33.8100 C   0  0  0  0  0  0  0  0  0  0  0  0
   27.5200   25.7100   32.6100 N   0  0  0  0  0  0  0  0  0  0  0  0
   23.2977   26.2609   35.1974 C   0  0  0  0  0  0  0  0  0  0  0  0
   22.3617   25.9879   36.1438 N   0  0  0  0  0  0  0  0  0  0  0  0
   21.0324   26.1155   35.9019 C   0  0  0  0  0  0  0  0  0  0  0  0
   20.5800   26.5577   34.6514 C   0  0  0  0  0  0  0  0  0  0  0  0
   19.1016   26.7091   34.3958 C   0  0  0  0  0  0  0  0  0  0  0  0
   18.5697   25.6491   33.5076 N   0  0  0  0  0  0  0  0  0  0  0  0
   18.3667   24.3862   34.2540 C   0  0  0  0  0  0  0  0  0  0  0  0
   17.4150   23.4474   33.5125 C   0  0  0  0  0  0  0  0  0  0  0  0
   19.3845   25.4246   32.2839 C   0  0  0  0  0  0  0  0  0  0  0  0
   19.9059   26.7257   31.6449 C   0  0  0  0  0  0  0  0  0  0  0  0
   21.0935   27.2791   32.3245 N   0  0  0  0  0  0  0  0  0  0  0  0
   21.8131   28.3669   31.6536 C   0  0  0  0  0  0  0  0  0  0  0  0
   21.5208   26.8538   33.6429 C   0  0  0  0  0  0  0  0  0  0  0  0
   22.8893   26.7168   33.9339 C   0  0  0  0  0  0  0  0  0  0  0  0
  1  2  1  0
  2  3  2  0
  2  4  1  0
  4  5  2  0
  5  6  1  0
  6  7  2  0
  7  8  1  0
  8  9  2  0
  9 10  1  0
 10 11  2  0
 11 12  1  0
 12 13  2  0
 13 14  1  0
  1 15  1  0
 15 16  2  0
 16 17  1  0
 17 18  2  0
 18 19  1  0
 19 20  1  0
 20 21  1  0
 21 22  1  0
 20 23  1  0
 23 24  1  0
 24 25  1  0
 25 26  1  0
 25 27  1  0
 27 28  2  0
 13  4  1  0
 28 15  1  0
 12  7  1  0
 27 18  1  0
M  END
>  <AAScore>  (1) 
1728.9077836396905

>  <RootName>  (1) 
./4ZLY/04_DeltaGEst/trajectory_02/rank_00/lead_0075

$$$$
