confid_18
     RDKit          3D

 26 28  0  0  0  0  0  0  0  0999 V2000
   24.5700   26.8800   35.5900 N   0  0  0  0  0  0  0  0  0  0  0  0
   25.5000   26.4000   34.6900 C   0  0  0  0  0  0  0  0  0  0  0  0
   25.1700   25.5200   33.9100 O   0  0  0  0  0  0  0  0  0  0  0  0
   26.8400   27.0200   34.7400 C   0  0  0  0  0  0  0  0  0  0  0  0
   27.3800   27.2800   35.9400 N   0  0  0  0  0  0  0  0  0  0  0  0
   28.6200   27.7400   36.0300 N   0  0  0  0  0  0  0  0  0  0  0  0
   29.3800   28.0000   34.9600 C   0  0  0  0  0  0  0  0  0  0  0  0
   30.6700   28.5000   35.1300 C   0  0  0  0  0  0  0  0  0  0  0  0
   31.5400   28.6100   34.0300 C   0  0  0  0  0  0  0  0  0  0  0  0
   31.0900   28.2200   32.7700 C   0  0  0  0  0  0  0  0  0  0  0  0
   29.8000   27.7000   32.6000 C   0  0  0  0  0  0  0  0  0  0  0  0
   28.9600   27.5500   33.7100 C   0  0  0  0  0  0  0  0  0  0  0  0
   27.6600   27.0300   33.5900 C   0  0  0  0  0  0  0  0  0  0  0  0
   27.1600   26.7400   32.3400 N   0  0  0  0  0  0  0  0  0  0  0  0
   33.1464   29.3011   34.2350 S   0  0  0  0  0  6  0  0  0  0  0  0
   33.7226   28.8382   35.5435 O   0  0  0  0  0  0  0  0  0  0  0  0
   34.0443   28.8299   33.1256 O   0  0  0  0  0  0  0  0  0  0  0  0
   33.0508   31.0868   34.2316 C   0  0  0  0  0  0  0  0  0  0  0  0
   32.4067   31.5902   32.9601 C   0  0  0  0  0  0  0  0  0  0  0  0
   33.1641   31.9718   31.8216 C   0  0  0  0  0  0  0  0  0  0  0  0
   34.6706   31.9891   31.8383 C   0  0  0  0  0  0  0  0  0  0  0  0
   32.4934   32.3957   30.6601 C   0  0  0  0  0  0  0  0  0  0  0  0
   31.0984   32.4283   30.6149 C   0  0  0  0  0  0  0  0  0  0  0  0
   30.4663   32.8330   29.4857 F   0  0  0  0  0  0  0  0  0  0  0  0
   30.3545   32.0504   31.7313 C   0  0  0  0  0  0  0  0  0  0  0  0
   31.0019   31.6383   32.8961 C   0  0  0  0  0  0  0  0  0  0  0  0
  1  2  1  0
  2  3  2  0
  2  4  1  0
  4  5  2  0
  5  6  1  0
  6  7  2  0
  7  8  1  0
  8  9  2  0
  9 10  1  0
 10 11  2  0
 11 12  1  0
 12 13  2  0
 13 14  1  0
  9 15  1  0
 15 16  2  0
 15 17  2  0
 15 18  1  0
 18 19  1  0
 19 20  2  0
 20 21  1  0
 20 22  1  0
 22 23  2  0
 23 24  1  0
 23 25  1  0
 25 26  2  0
 13  4  1  0
 26 19  1  0
 12  7  1  0
M  END
>  <AAScore>  (1) 
-5.2391076955842415

>  <RootName>  (1) 
./4ZLY/04_DeltaGEst/trajectory_05/rank_01/lead_0415

$$$$
