confid_0
     RDKit          3D

 28 31  0  0  0  0  0  0  0  0999 V2000
   24.5500   26.3900   36.2500 N   0  0  0  0  0  0  0  0  0  0  0  0
   25.6000   26.1300   35.4000 C   0  0  0  0  0  0  0  0  0  0  0  0
   25.4300   25.4300   34.4200 O   0  0  0  0  0  0  0  0  0  0  0  0
   26.9800   26.6300   35.7100 C   0  0  0  0  0  0  0  0  0  0  0  0
   27.3200   26.8200   36.9800 N   0  0  0  0  0  0  0  0  0  0  0  0
   28.4700   27.4000   37.3100 N   0  0  0  0  0  0  0  0  0  0  0  0
   29.4000   27.6300   36.3700 C   0  0  0  0  0  0  0  0  0  0  0  0
   30.6600   28.0500   36.8000 C   0  0  0  0  0  0  0  0  0  0  0  0
   31.5700   28.3600   35.7800 C   0  0  0  0  0  0  0  0  0  0  0  0
   31.3700   28.1000   34.4300 C   0  0  0  0  0  0  0  0  0  0  0  0
   30.1200   27.5900   34.0500 C   0  0  0  0  0  0  0  0  0  0  0  0
   29.1500   27.3400   35.0300 C   0  0  0  0  0  0  0  0  0  0  0  0
   27.8800   26.8900   34.6600 C   0  0  0  0  0  0  0  0  0  0  0  0
   27.4800   26.6100   33.3700 N   0  0  0  0  0  0  0  0  0  0  0  0
   30.9756   28.3199   38.1796 N   0  0  0  0  0  0  0  0  0  0  0  0
   32.1928   27.7460   38.7836 C   0  0  0  0  0  0  0  0  0  0  0  0
   33.1231   28.8610   39.2944 C   0  0  0  0  0  0  0  0  0  0  0  0
   32.3177   29.8918   40.0229 C   0  0  0  0  0  0  0  0  0  0  0  0
   32.7147   30.9024   40.8776 C   0  0  0  0  0  0  0  0  0  0  0  0
   31.6431   31.6581   41.2042 N   0  0  0  0  0  0  0  0  0  0  0  0
   30.5873   31.1517   40.5795 N   0  0  0  0  0  0  0  0  0  0  0  0
   29.2434   31.7225   40.6644 C   0  0  0  0  0  0  0  0  0  0  0  0
   28.9820   32.7096   39.5087 C   0  0  0  0  0  0  0  0  0  0  0  0
   27.5113   33.1426   39.5059 C   0  0  0  0  0  0  0  0  0  0  0  0
   29.8945   33.9403   39.6019 C   0  0  0  0  0  0  0  0  0  0  0  0
   30.9753   30.0933   39.8388 C   0  0  0  0  0  0  0  0  0  0  0  0
   30.1175   29.2049   38.9883 C   0  0  0  0  0  0  0  0  0  0  0  0
   34.1086   31.1843   41.3304 C   0  0  0  0  0  0  0  0  0  0  0  0
  1  2  1  0
  2  3  2  0
  2  4  1  0
  4  5  2  0
  5  6  1  0
  6  7  2  0
  7  8  1  0
  8  9  2  0
  9 10  1  0
 10 11  2  0
 11 12  1  0
 12 13  2  0
 13 14  1  0
  8 15  1  0
 15 16  1  0
 16 17  1  0
 17 18  1  0
 18 19  1  0
 19 20  2  0
 20 21  1  0
 21 22  1  0
 22 23  1  0
 23 24  1  0
 23 25  1  0
 21 26  1  0
 26 27  1  0
 19 28  1  0
 13  4  1  0
 27 15  1  0
 12  7  1  0
 26 18  2  0
M  END
>  <AAScore>  (1) 
404.10025253221806

>  <RootName>  (1) 
./4ZLY/04_DeltaGEst/trajectory_01/rank_01/lead_0010

$$$$
