confid_4
     RDKit          3D

 29 32  0  0  0  0  0  0  0  0999 V2000
   24.4800   26.1000   36.1300 N   0  0  0  0  0  0  0  0  0  0  0  0
   25.2500   26.2500   34.9900 C   0  0  0  0  0  0  0  0  0  0  0  0
   24.7400   25.7600   33.9900 O   0  0  0  0  0  0  0  0  0  0  0  0
   26.5900   26.8900   34.9600 C   0  0  0  0  0  0  0  0  0  0  0  0
   27.0600   27.2400   36.1600 N   0  0  0  0  0  0  0  0  0  0  0  0
   28.3000   27.7100   36.2400 N   0  0  0  0  0  0  0  0  0  0  0  0
   29.0500   27.9600   35.1500 C   0  0  0  0  0  0  0  0  0  0  0  0
   30.3400   28.4900   35.2600 C   0  0  0  0  0  0  0  0  0  0  0  0
   31.1100   28.8200   34.1400 C   0  0  0  0  0  0  0  0  0  0  0  0
   30.5200   28.6700   32.8800 C   0  0  0  0  0  0  0  0  0  0  0  0
   29.2900   28.0200   32.7700 C   0  0  0  0  0  0  0  0  0  0  0  0
   28.5200   27.7100   33.8900 C   0  0  0  0  0  0  0  0  0  0  0  0
   27.2700   27.0800   33.7600 C   0  0  0  0  0  0  0  0  0  0  0  0
   26.7500   26.8800   32.4900 N   0  0  0  0  0  0  0  0  0  0  0  0
   23.0387   26.0080   36.1588 C   0  0  0  0  0  0  0  0  0  0  0  0
   22.3574   26.2371   35.0728 N   0  0  0  0  0  0  0  0  0  0  0  0
   20.9326   26.2214   34.9607 C   0  0  0  0  0  0  0  0  0  0  0  0
   20.2356   27.3621   35.0203 C   0  0  0  0  0  0  0  0  0  0  0  0
   18.7895   27.4194   34.6151 C   0  0  0  0  0  0  0  0  0  0  0  0
   18.4646   28.6978   33.9526 N   0  0  0  0  0  0  0  0  0  0  0  0
   17.1017   28.9002   33.4579 C   0  0  0  0  0  0  0  0  0  0  0  0
   19.4331   29.7659   33.8107 C   0  0  0  0  0  0  0  0  0  0  0  0
   19.1145   30.8392   33.2301 O   0  0  0  0  0  0  0  0  0  0  0  0
   20.8434   29.5963   34.3059 C   0  0  0  0  0  0  0  0  0  0  0  0
   20.8659   28.5982   35.3738 N   0  0  0  0  0  0  0  0  0  0  0  0
   20.8431   29.0403   36.7801 C   0  0  0  0  0  0  0  0  0  0  0  0
   21.8526   28.2824   37.6586 C   0  0  0  0  0  0  0  0  0  0  0  0
   21.4046   26.8344   37.9802 C   0  0  0  0  0  0  0  0  0  0  0  0
   22.3585   25.7255   37.4845 C   0  0  0  0  0  0  0  0  0  0  0  0
  1  2  1  0
  2  3  2  0
  2  4  1  0
  4  5  2  0
  5  6  1  0
  6  7  2  0
  7  8  1  0
  8  9  2  0
  9 10  1  0
 10 11  2  0
 11 12  1  0
 12 13  2  0
 13 14  1  0
  1 15  1  0
 15 16  2  0
 16 17  1  0
 17 18  2  0
 18 19  1  0
 19 20  1  0
 20 21  1  0
 20 22  1  0
 22 23  2  0
 22 24  1  0
 24 25  1  0
 25 26  1  0
 26 27  1  0
 27 28  1  0
 28 29  1  0
 13  4  1  0
 29 15  1  0
 12  7  1  0
 25 18  1  0
M  END
>  <AAScore>  (1) 
1658.8047659871506

>  <RootName>  (1) 
./4ZLY/04_DeltaGEst/trajectory_00/rank_00/lead_0418

$$$$
