confid_0
     RDKit          3D

 28 31  0  0  0  0  0  0  0  0999 V2000
   24.5500   26.3900   36.2500 N   0  0  0  0  0  0  0  0  0  0  0  0
   25.6000   26.1300   35.4000 C   0  0  0  0  0  0  0  0  0  0  0  0
   25.4300   25.4300   34.4200 O   0  0  0  0  0  0  0  0  0  0  0  0
   26.9800   26.6300   35.7100 C   0  0  0  0  0  0  0  0  0  0  0  0
   27.3200   26.8200   36.9800 N   0  0  0  0  0  0  0  0  0  0  0  0
   28.4700   27.4000   37.3100 N   0  0  0  0  0  0  0  0  0  0  0  0
   29.4000   27.6300   36.3700 C   0  0  0  0  0  0  0  0  0  0  0  0
   30.6600   28.0500   36.8000 C   0  0  0  0  0  0  0  0  0  0  0  0
   31.5700   28.3600   35.7800 C   0  0  0  0  0  0  0  0  0  0  0  0
   31.3700   28.1000   34.4300 C   0  0  0  0  0  0  0  0  0  0  0  0
   30.1200   27.5900   34.0500 C   0  0  0  0  0  0  0  0  0  0  0  0
   29.1500   27.3400   35.0300 C   0  0  0  0  0  0  0  0  0  0  0  0
   27.8800   26.8900   34.6600 C   0  0  0  0  0  0  0  0  0  0  0  0
   27.4800   26.6100   33.3700 N   0  0  0  0  0  0  0  0  0  0  0  0
   23.1739   25.9647   35.9601 C   0  0  0  0  0  0  0  0  0  0  0  0
   22.5774   26.8257   34.8260 C   0  0  0  0  0  0  0  0  0  0  0  0
   21.0390   26.9402   34.9013 C   0  0  0  0  0  0  0  0  0  0  0  0
   20.4067   25.7679   35.5443 N   0  0  0  0  0  0  0  0  0  0  0  0
   20.4565   24.5498   34.7008 C   0  0  0  0  0  0  0  0  0  0  0  0
   19.2460   24.5129   33.7633 C   0  0  0  0  0  0  0  0  0  0  0  0
   19.2847   23.2899   32.8987 C   0  0  0  0  0  0  0  0  0  0  0  0
   19.9591   23.1573   31.6980 C   0  0  0  0  0  0  0  0  0  0  0  0
   19.7601   21.8536   31.2874 C   0  0  0  0  0  0  0  0  0  0  0  0
   19.0187   21.1958   32.2006 N   0  0  0  0  0  0  0  0  0  0  0  0
   18.5425   19.8223   32.0903 C   0  0  0  0  0  0  0  0  0  0  0  0
   18.7168   22.0640   33.1852 C   0  0  0  0  0  0  0  0  0  0  0  0
   20.8675   25.5635   36.9438 C   0  0  0  0  0  0  0  0  0  0  0  0
   22.3019   26.0651   37.2164 C   0  0  0  0  0  0  0  0  0  0  0  0
  1  2  1  0
  2  3  2  0
  2  4  1  0
  4  5  2  0
  5  6  1  0
  6  7  2  0
  7  8  1  0
  8  9  2  0
  9 10  1  0
 10 11  2  0
 11 12  1  0
 12 13  2  0
 13 14  1  0
  1 15  1  0
 15 16  1  0
 16 17  1  0
 17 18  1  0
 18 19  1  0
 19 20  1  0
 20 21  1  0
 21 22  1  0
 22 23  2  0
 23 24  1  0
 24 25  1  0
 24 26  1  0
 18 27  1  0
 27 28  1  0
 13  4  1  0
 28 15  1  0
 12  7  1  0
 26 21  2  0
M  END
>  <AAScore>  (1) 
93.38160631533717

>  <RootName>  (1) 
./4ZLY/04_DeltaGEst/trajectory_01/rank_00/lead_0386

$$$$
