confid_18
     RDKit          3D

 30 33  0  0  0  0  0  0  0  0999 V2000
   24.2000   26.2400   35.6900 N   0  0  0  0  0  0  0  0  0  0  0  0
   24.8500   26.2800   34.4800 C   0  0  0  0  0  0  0  0  0  0  0  0
   24.3100   25.7400   33.5400 O   0  0  0  0  0  0  0  0  0  0  0  0
   26.1800   26.9700   34.4700 C   0  0  0  0  0  0  0  0  0  0  0  0
   26.6500   27.6000   35.5500 N   0  0  0  0  0  0  0  0  0  0  0  0
   27.7900   28.2700   35.6200 N   0  0  0  0  0  0  0  0  0  0  0  0
   28.5400   28.3000   34.5100 C   0  0  0  0  0  0  0  0  0  0  0  0
   29.7700   28.9400   34.5600 C   0  0  0  0  0  0  0  0  0  0  0  0
   30.7000   28.8900   33.5000 C   0  0  0  0  0  0  0  0  0  0  0  0
   30.3700   28.1400   32.3700 C   0  0  0  0  0  0  0  0  0  0  0  0
   29.1200   27.5200   32.2800 C   0  0  0  0  0  0  0  0  0  0  0  0
   28.2100   27.6100   33.3300 C   0  0  0  0  0  0  0  0  0  0  0  0
   26.9700   26.9700   33.3100 C   0  0  0  0  0  0  0  0  0  0  0  0
   26.5300   26.2400   32.2200 N   0  0  0  0  0  0  0  0  0  0  0  0
   23.2588   25.2178   36.0728 C   0  0  0  0  0  0  0  0  0  0  0  0
   23.2555   24.0808   35.4333 N   0  0  0  0  0  0  0  0  0  0  0  0
   22.4620   22.9000   35.6364 C   0  0  0  0  0  0  0  0  0  0  0  0
   21.1170   22.8470   35.7577 C   0  0  0  0  0  0  0  0  0  0  0  0
   20.4660   21.4886   35.9119 C   0  0  0  0  0  0  0  0  0  0  0  0
   19.3273   21.5229   36.8463 N   0  0  0  0  0  0  0  0  0  0  0  0
   18.3730   22.5906   36.4934 C   0  0  0  0  0  0  0  0  0  0  0  0
   19.0245   23.9809   36.4816 C   0  0  0  0  0  0  0  0  0  0  0  0
   20.2462   23.9975   35.6575 N   0  0  0  0  0  0  0  0  0  0  0  0
   20.3086   24.8784   34.4794 C   0  0  0  0  0  0  0  0  0  0  0  0
   20.0977   26.3690   34.8194 C   0  0  0  0  0  0  0  0  0  0  0  0
   21.2820   26.9672   35.4739 N   0  0  0  0  0  0  0  0  0  0  0  0
   21.3053   28.4227   35.2467 C   0  0  0  0  0  0  0  0  0  0  0  0
   21.3574   26.6625   36.9295 C   0  0  0  0  0  0  0  0  0  0  0  0
   22.3422   25.5095   37.2364 C   0  0  0  0  0  0  0  0  0  0  0  0
   19.7709   21.5989   38.2495 C   0  0  0  0  0  0  0  0  0  0  0  0
  1  2  1  0
  2  3  2  0
  2  4  1  0
  4  5  2  0
  5  6  1  0
  6  7  2  0
  7  8  1  0
  8  9  2  0
  9 10  1  0
 10 11  2  0
 11 12  1  0
 12 13  2  0
 13 14  1  0
  1 15  1  0
 15 16  2  0
 16 17  1  0
 17 18  2  0
 18 19  1  0
 19 20  1  0
 20 21  1  0
 21 22  1  0
 22 23  1  0
 23 24  1  0
 24 25  1  0
 25 26  1  0
 26 27  1  0
 26 28  1  0
 28 29  1  0
 20 30  1  0
 13  4  1  0
 29 15  1  0
 12  7  1  0
 23 18  1  0
M  END
>  <AAScore>  (1) 
3296.4690131594903

>  <RootName>  (1) 
./4ZLY/04_DeltaGEst/trajectory_04/rank_00/lead_0241

$$$$
