confid_2
     RDKit          3D

 27 30  0  0  0  0  0  0  0  0999 V2000
   24.6900   26.1200   35.5300 N   0  0  0  0  0  0  0  0  0  0  0  0
   25.6600   25.6700   34.6600 C   0  0  0  0  0  0  0  0  0  0  0  0
   25.2400   25.0100   33.7200 O   0  0  0  0  0  0  0  0  0  0  0  0
   27.0300   26.2200   34.8800 C   0  0  0  0  0  0  0  0  0  0  0  0
   27.3500   26.7300   36.0700 N   0  0  0  0  0  0  0  0  0  0  0  0
   28.5700   27.1800   36.3300 N   0  0  0  0  0  0  0  0  0  0  0  0
   29.5300   27.1100   35.3900 C   0  0  0  0  0  0  0  0  0  0  0  0
   30.8300   27.5700   35.6500 C   0  0  0  0  0  0  0  0  0  0  0  0
   31.8500   27.5400   34.6900 C   0  0  0  0  0  0  0  0  0  0  0  0
   31.5100   27.1200   33.4000 C   0  0  0  0  0  0  0  0  0  0  0  0
   30.2200   26.6300   33.1100 C   0  0  0  0  0  0  0  0  0  0  0  0
   29.2400   26.6600   34.1000 C   0  0  0  0  0  0  0  0  0  0  0  0
   27.9300   26.2600   33.8100 C   0  0  0  0  0  0  0  0  0  0  0  0
   27.5200   25.7100   32.6100 N   0  0  0  0  0  0  0  0  0  0  0  0
   23.5757   25.3161   35.9649 C   0  0  0  0  0  0  0  0  0  0  0  0
   23.4762   24.0041   35.5745 N   0  0  0  0  0  0  0  0  0  0  0  0
   22.4615   23.1903   35.9836 C   0  0  0  0  0  0  0  0  0  0  0  0
   21.4896   23.7073   36.8338 C   0  0  0  0  0  0  0  0  0  0  0  0
   20.2861   23.0160   37.4086 C   0  0  0  0  0  0  0  0  0  0  0  0
   19.6447   24.0723   38.1956 N   0  0  0  0  0  0  0  0  0  0  0  0
   18.4230   23.9248   38.9750 C   0  0  0  0  0  0  0  0  0  0  0  0
   20.4140   25.2642   38.0813 C   0  0  0  0  0  0  0  0  0  0  0  0
   20.1114   26.3598   38.6237 O   0  0  0  0  0  0  0  0  0  0  0  0
   21.5609   25.0191   37.2391 C   0  0  0  0  0  0  0  0  0  0  0  0
   22.6006   25.8573   36.8335 C   0  0  0  0  0  0  0  0  0  0  0  0
   22.6712   27.1797   37.2725 O   0  0  0  0  0  0  0  0  0  0  0  0
   23.2542   27.5070   38.5271 C   0  0  0  0  0  0  0  0  0  0  0  0
  1  2  1  0
  2  3  2  0
  2  4  1  0
  4  5  2  0
  5  6  1  0
  6  7  2  0
  7  8  1  0
  8  9  2  0
  9 10  1  0
 10 11  2  0
 11 12  1  0
 12 13  2  0
 13 14  1  0
  1 15  1  0
 15 16  2  0
 16 17  1  0
 17 18  2  0
 18 19  1  0
 19 20  1  0
 20 21  1  0
 20 22  1  0
 22 23  2  0
 22 24  1  0
 24 25  2  0
 25 26  1  0
 26 27  1  0
 13  4  1  0
 25 15  1  0
 12  7  1  0
 24 18  1  0
M  END
>  <AAScore>  (1) 
1293.5087587012292

>  <RootName>  (1) 
./4ZLY/04_DeltaGEst/trajectory_02/rank_00/lead_0131

$$$$
