confid_19
     RDKit          3D

 28 31  0  0  0  0  0  0  0  0999 V2000
   24.5500   26.3900   36.2500 N   0  0  0  0  0  0  0  0  0  0  0  0
   25.6000   26.1300   35.4000 C   0  0  0  0  0  0  0  0  0  0  0  0
   25.4300   25.4300   34.4200 O   0  0  0  0  0  0  0  0  0  0  0  0
   26.9800   26.6300   35.7100 C   0  0  0  0  0  0  0  0  0  0  0  0
   27.3200   26.8200   36.9800 N   0  0  0  0  0  0  0  0  0  0  0  0
   28.4700   27.4000   37.3100 N   0  0  0  0  0  0  0  0  0  0  0  0
   29.4000   27.6300   36.3700 C   0  0  0  0  0  0  0  0  0  0  0  0
   30.6600   28.0500   36.8000 C   0  0  0  0  0  0  0  0  0  0  0  0
   31.5700   28.3600   35.7800 C   0  0  0  0  0  0  0  0  0  0  0  0
   31.3700   28.1000   34.4300 C   0  0  0  0  0  0  0  0  0  0  0  0
   30.1200   27.5900   34.0500 C   0  0  0  0  0  0  0  0  0  0  0  0
   29.1500   27.3400   35.0300 C   0  0  0  0  0  0  0  0  0  0  0  0
   27.8800   26.8900   34.6600 C   0  0  0  0  0  0  0  0  0  0  0  0
   27.4800   26.6100   33.3700 N   0  0  0  0  0  0  0  0  0  0  0  0
   31.0067   28.2831   38.2246 C   0  0  0  0  0  0  0  0  0  0  0  0
   31.5763   29.5079   38.6300 C   0  0  0  0  0  0  0  0  0  0  0  0
   31.8964   29.6765   39.9744 C   0  0  0  0  0  0  0  0  0  0  0  0
   32.4264   30.8833   40.6675 C   0  0  0  0  0  0  0  0  0  0  0  0
   32.4138   30.4682   42.1626 C   0  0  0  0  0  0  0  0  0  0  0  0
   32.0158   29.0594   42.1878 N   0  0  0  0  0  0  0  0  0  0  0  0
   31.7169   28.3156   43.3759 C   0  0  0  0  0  0  0  0  0  0  0  0
   31.1561   28.8980   44.3435 O   0  0  0  0  0  0  0  0  0  0  0  0
   32.0715   26.9254   43.4862 N   0  0  0  0  0  0  0  0  0  0  0  0
   33.2796   26.4263   42.8220 C   0  0  0  0  0  0  0  0  0  0  0  0
   31.3061   26.0609   44.3875 C   0  0  0  0  0  0  0  0  0  0  0  0
   31.6780   28.6748   40.8697 C   0  0  0  0  0  0  0  0  0  0  0  0
   31.1123   27.4961   40.5046 N   0  0  0  0  0  0  0  0  0  0  0  0
   30.7844   27.2789   39.1981 C   0  0  0  0  0  0  0  0  0  0  0  0
  1  2  1  0
  2  3  2  0
  2  4  1  0
  4  5  2  0
  5  6  1  0
  6  7  2  0
  7  8  1  0
  8  9  2  0
  9 10  1  0
 10 11  2  0
 11 12  1  0
 12 13  2  0
 13 14  1  0
  8 15  1  0
 15 16  2  0
 16 17  1  0
 17 18  1  0
 18 19  1  0
 19 20  1  0
 20 21  1  0
 21 22  2  0
 21 23  1  0
 23 24  1  0
 23 25  1  0
 20 26  1  0
 26 27  1  0
 27 28  2  0
 13  4  1  0
 28 15  1  0
 12  7  1  0
 26 17  2  0
M  END
>  <AAScore>  (1) 
498.1110305745379

>  <RootName>  (1) 
./4ZLY/04_DeltaGEst/trajectory_01/rank_01/lead_0359

$$$$
