confid_5
     RDKit          3D

 28 31  0  0  0  0  0  0  0  0999 V2000
   24.5500   26.3900   36.2500 N   0  0  0  0  0  0  0  0  0  0  0  0
   25.6000   26.1300   35.4000 C   0  0  0  0  0  0  0  0  0  0  0  0
   25.4300   25.4300   34.4200 O   0  0  0  0  0  0  0  0  0  0  0  0
   26.9800   26.6300   35.7100 C   0  0  0  0  0  0  0  0  0  0  0  0
   27.3200   26.8200   36.9800 N   0  0  0  0  0  0  0  0  0  0  0  0
   28.4700   27.4000   37.3100 N   0  0  0  0  0  0  0  0  0  0  0  0
   29.4000   27.6300   36.3700 C   0  0  0  0  0  0  0  0  0  0  0  0
   30.6600   28.0500   36.8000 C   0  0  0  0  0  0  0  0  0  0  0  0
   31.5700   28.3600   35.7800 C   0  0  0  0  0  0  0  0  0  0  0  0
   31.3700   28.1000   34.4300 C   0  0  0  0  0  0  0  0  0  0  0  0
   30.1200   27.5900   34.0500 C   0  0  0  0  0  0  0  0  0  0  0  0
   29.1500   27.3400   35.0300 C   0  0  0  0  0  0  0  0  0  0  0  0
   27.8800   26.8900   34.6600 C   0  0  0  0  0  0  0  0  0  0  0  0
   27.4800   26.6100   33.3700 N   0  0  0  0  0  0  0  0  0  0  0  0
   23.1907   25.8819   36.0285 C   0  0  0  0  0  0  0  0  0  0  0  0
   22.5027   25.6196   37.3745 C   0  0  0  0  0  0  0  0  0  0  0  0
   21.0781   25.0683   37.1641 C   0  0  0  0  0  0  0  0  0  0  0  0
   20.3444   25.6902   36.0265 N   0  0  0  0  0  0  0  0  0  0  0  0
   20.1635   24.7709   34.8819 C   0  0  0  0  0  0  0  0  0  0  0  0
   19.1229   23.7308   35.2052 C   0  0  0  0  0  0  0  0  0  0  0  0
   17.7917   24.1046   35.4212 C   0  0  0  0  0  0  0  0  0  0  0  0
   16.8679   23.1573   35.7287 N   0  0  0  0  0  0  0  0  0  0  0  0
   17.1984   21.8684   35.8291 N   0  0  0  0  0  0  0  0  0  0  0  0
   18.4741   21.4426   35.6252 C   0  0  0  0  0  0  0  0  0  0  0  0
   18.8123   19.9917   35.7651 C   0  0  0  0  0  0  0  0  0  0  0  0
   19.4651   22.3773   35.3123 C   0  0  0  0  0  0  0  0  0  0  0  0
   20.9073   26.9912   35.6094 C   0  0  0  0  0  0  0  0  0  0  0  0
   22.3815   26.8802   35.1701 C   0  0  0  0  0  0  0  0  0  0  0  0
  1  2  1  0
  2  3  2  0
  2  4  1  0
  4  5  2  0
  5  6  1  0
  6  7  2  0
  7  8  1  0
  8  9  2  0
  9 10  1  0
 10 11  2  0
 11 12  1  0
 12 13  2  0
 13 14  1  0
  1 15  1  0
 15 16  1  0
 16 17  1  0
 17 18  1  0
 18 19  1  0
 19 20  1  0
 20 21  2  0
 21 22  1  0
 22 23  2  0
 23 24  1  0
 24 25  1  0
 24 26  2  0
 18 27  1  0
 27 28  1  0
 13  4  1  0
 28 15  1  0
 12  7  1  0
 26 20  1  0
M  END
>  <AAScore>  (1) 
368.5109507973634

>  <RootName>  (1) 
./4ZLY/04_DeltaGEst/trajectory_01/rank_00/lead_0342

$$$$
