confid_7
     RDKit          3D

 28 31  0  0  0  0  0  0  0  0999 V2000
   24.2000   26.2400   35.6900 N   0  0  0  0  0  0  0  0  0  0  0  0
   24.8500   26.2800   34.4800 C   0  0  0  0  0  0  0  0  0  0  0  0
   24.3100   25.7400   33.5400 O   0  0  0  0  0  0  0  0  0  0  0  0
   26.1800   26.9700   34.4700 C   0  0  0  0  0  0  0  0  0  0  0  0
   26.6500   27.6000   35.5500 N   0  0  0  0  0  0  0  0  0  0  0  0
   27.7900   28.2700   35.6200 N   0  0  0  0  0  0  0  0  0  0  0  0
   28.5400   28.3000   34.5100 C   0  0  0  0  0  0  0  0  0  0  0  0
   29.7700   28.9400   34.5600 C   0  0  0  0  0  0  0  0  0  0  0  0
   30.7000   28.8900   33.5000 C   0  0  0  0  0  0  0  0  0  0  0  0
   30.3700   28.1400   32.3700 C   0  0  0  0  0  0  0  0  0  0  0  0
   29.1200   27.5200   32.2800 C   0  0  0  0  0  0  0  0  0  0  0  0
   28.2100   27.6100   33.3300 C   0  0  0  0  0  0  0  0  0  0  0  0
   26.9700   26.9700   33.3100 C   0  0  0  0  0  0  0  0  0  0  0  0
   26.5300   26.2400   32.2200 N   0  0  0  0  0  0  0  0  0  0  0  0
   23.2324   25.2377   36.0587 C   0  0  0  0  0  0  0  0  0  0  0  0
   23.0744   24.1141   35.3089 N   0  0  0  0  0  0  0  0  0  0  0  0
   22.1805   23.1467   35.6350 C   0  0  0  0  0  0  0  0  0  0  0  0
   21.3774   23.2708   36.7795 C   0  0  0  0  0  0  0  0  0  0  0  0
   20.3646   22.1792   37.0828 C   0  0  0  0  0  0  0  0  0  0  0  0
   19.0454   22.3763   36.4311 N   0  0  0  0  0  0  0  0  0  0  0  0
   19.0799   21.9929   35.0095 C   0  0  0  0  0  0  0  0  0  0  0  0
   18.4681   23.7316   36.5803 C   0  0  0  0  0  0  0  0  0  0  0  0
   18.2760   24.1385   38.0543 C   0  0  0  0  0  0  0  0  0  0  0  0
   19.3378   25.1109   38.4956 C   0  0  0  0  0  0  0  0  0  0  0  0
   19.0962   26.3088   38.4835 O   0  0  0  0  0  0  0  0  0  0  0  0
   20.7199   24.6429   38.8507 C   0  0  0  0  0  0  0  0  0  0  0  0
   21.5402   24.4164   37.6003 C   0  0  0  0  0  0  0  0  0  0  0  0
   22.4675   25.4002   37.2193 C   0  0  0  0  0  0  0  0  0  0  0  0
  1  2  1  0
  2  3  2  0
  2  4  1  0
  4  5  2  0
  5  6  1  0
  6  7  2  0
  7  8  1  0
  8  9  2  0
  9 10  1  0
 10 11  2  0
 11 12  1  0
 12 13  2  0
 13 14  1  0
  1 15  1  0
 15 16  2  0
 16 17  1  0
 17 18  2  0
 18 19  1  0
 19 20  1  0
 20 21  1  0
 20 22  1  0
 22 23  1  0
 23 24  1  0
 24 25  2  0
 24 26  1  0
 26 27  1  0
 27 28  2  0
 13  4  1  0
 28 15  1  0
 12  7  1  0
 27 18  1  0
M  END
>  <AAScore>  (1) 
960.8018434252224

>  <RootName>  (1) 
./4ZLY/04_DeltaGEst/trajectory_04/rank_00/lead_0226

$$$$
