confid_19
     RDKit          3D

 28 31  0  0  0  0  0  0  0  0999 V2000
   24.2000   26.2400   35.6900 N   0  0  0  0  0  0  0  0  0  0  0  0
   24.8500   26.2800   34.4800 C   0  0  0  0  0  0  0  0  0  0  0  0
   24.3100   25.7400   33.5400 O   0  0  0  0  0  0  0  0  0  0  0  0
   26.1800   26.9700   34.4700 C   0  0  0  0  0  0  0  0  0  0  0  0
   26.6500   27.6000   35.5500 N   0  0  0  0  0  0  0  0  0  0  0  0
   27.7900   28.2700   35.6200 N   0  0  0  0  0  0  0  0  0  0  0  0
   28.5400   28.3000   34.5100 C   0  0  0  0  0  0  0  0  0  0  0  0
   29.7700   28.9400   34.5600 C   0  0  0  0  0  0  0  0  0  0  0  0
   30.7000   28.8900   33.5000 C   0  0  0  0  0  0  0  0  0  0  0  0
   30.3700   28.1400   32.3700 C   0  0  0  0  0  0  0  0  0  0  0  0
   29.1200   27.5200   32.2800 C   0  0  0  0  0  0  0  0  0  0  0  0
   28.2100   27.6100   33.3300 C   0  0  0  0  0  0  0  0  0  0  0  0
   26.9700   26.9700   33.3100 C   0  0  0  0  0  0  0  0  0  0  0  0
   26.5300   26.2400   32.2200 N   0  0  0  0  0  0  0  0  0  0  0  0
   30.1121   29.7124   35.7243 N   0  0  0  0  0  0  0  0  0  0  0  0
   31.2809   29.3720   36.5389 C   0  0  0  0  0  0  0  0  0  0  0  0
   32.3474   30.4622   36.3999 C   0  0  0  0  0  0  0  0  0  0  0  0
   31.7438   31.7963   36.5371 N   0  0  0  0  0  0  0  0  0  0  0  0
   32.5163   32.8606   37.1200 C   0  0  0  0  0  0  0  0  0  0  0  0
   32.9422   32.7691   38.4525 C   0  0  0  0  0  0  0  0  0  0  0  0
   33.6991   33.7949   39.0217 C   0  0  0  0  0  0  0  0  0  0  0  0
   34.0346   34.9236   38.2684 C   0  0  0  0  0  0  0  0  0  0  0  0
   34.7839   35.9017   38.8386 F   0  0  0  0  0  0  0  0  0  0  0  0
   33.5988   35.0382   36.9371 C   0  0  0  0  0  0  0  0  0  0  0  0
   33.9905   36.2244   36.1033 C   0  0  0  0  0  0  0  0  0  0  0  0
   32.8528   33.9959   36.3644 C   0  0  0  0  0  0  0  0  0  0  0  0
   30.5414   32.1113   35.7525 C   0  0  0  0  0  0  0  0  0  0  0  0
   29.4901   31.0182   35.9412 C   0  0  0  0  0  0  0  0  0  0  0  0
  1  2  1  0
  2  3  2  0
  2  4  1  0
  4  5  2  0
  5  6  1  0
  6  7  2  0
  7  8  1  0
  8  9  2  0
  9 10  1  0
 10 11  2  0
 11 12  1  0
 12 13  2  0
 13 14  1  0
  8 15  1  0
 15 16  1  0
 16 17  1  0
 17 18  1  0
 18 19  1  0
 19 20  2  0
 20 21  1  0
 21 22  2  0
 22 23  1  0
 22 24  1  0
 24 25  1  0
 24 26  2  0
 18 27  1  0
 27 28  1  0
 13  4  1  0
 28 15  1  0
 12  7  1  0
 26 19  1  0
M  END
>  <AAScore>  (1) 
-8.23960304055914

>  <RootName>  (1) 
./4ZLY/04_DeltaGEst/trajectory_04/rank_01/lead_0424

$$$$
