confid_13
     RDKit          3D

 27 30  0  0  0  0  0  0  0  0999 V2000
   24.5500   26.3900   36.2500 N   0  0  0  0  0  0  0  0  0  0  0  0
   25.6000   26.1300   35.4000 C   0  0  0  0  0  0  0  0  0  0  0  0
   25.4300   25.4300   34.4200 O   0  0  0  0  0  0  0  0  0  0  0  0
   26.9800   26.6300   35.7100 C   0  0  0  0  0  0  0  0  0  0  0  0
   27.3200   26.8200   36.9800 N   0  0  0  0  0  0  0  0  0  0  0  0
   28.4700   27.4000   37.3100 N   0  0  0  0  0  0  0  0  0  0  0  0
   29.4000   27.6300   36.3700 C   0  0  0  0  0  0  0  0  0  0  0  0
   30.6600   28.0500   36.8000 C   0  0  0  0  0  0  0  0  0  0  0  0
   31.5700   28.3600   35.7800 C   0  0  0  0  0  0  0  0  0  0  0  0
   31.3700   28.1000   34.4300 C   0  0  0  0  0  0  0  0  0  0  0  0
   30.1200   27.5900   34.0500 C   0  0  0  0  0  0  0  0  0  0  0  0
   29.1500   27.3400   35.0300 C   0  0  0  0  0  0  0  0  0  0  0  0
   27.8800   26.8900   34.6600 C   0  0  0  0  0  0  0  0  0  0  0  0
   27.4800   26.6100   33.3700 N   0  0  0  0  0  0  0  0  0  0  0  0
   31.0056   28.2819   38.2254 C   0  0  0  0  0  0  0  0  0  0  0  0
   30.8064   27.2707   39.1798 C   0  0  0  0  0  0  0  0  0  0  0  0
   31.1473   27.4802   40.5247 C   0  0  0  0  0  0  0  0  0  0  0  0
   30.8608   26.4101   41.5512 C   0  0  0  0  0  0  0  0  0  0  0  0
   31.8685   26.4655   42.7048 C   0  0  0  0  0  0  0  0  0  0  0  0
   31.9391   27.8229   43.2604 N   0  0  0  0  0  0  0  0  0  0  0  0
   31.9930   28.0311   44.7125 C   0  0  0  0  0  0  0  0  0  0  0  0
   30.6610   28.5702   45.2217 C   0  0  0  0  0  0  0  0  0  0  0  0
   32.0071   28.9365   42.3497 C   0  0  0  0  0  0  0  0  0  0  0  0
   32.3362   30.0815   42.7653 O   0  0  0  0  0  0  0  0  0  0  0  0
   31.6730   28.7249   40.9254 C   0  0  0  0  0  0  0  0  0  0  0  0
   31.8763   29.7332   39.9704 C   0  0  0  0  0  0  0  0  0  0  0  0
   31.5513   29.5101   38.6306 C   0  0  0  0  0  0  0  0  0  0  0  0
  1  2  1  0
  2  3  2  0
  2  4  1  0
  4  5  2  0
  5  6  1  0
  6  7  2  0
  7  8  1  0
  8  9  2  0
  9 10  1  0
 10 11  2  0
 11 12  1  0
 12 13  2  0
 13 14  1  0
  8 15  1  0
 15 16  2  0
 16 17  1  0
 17 18  1  0
 18 19  1  0
 19 20  1  0
 20 21  1  0
 21 22  1  0
 20 23  1  0
 23 24  2  0
 23 25  1  0
 25 26  1  0
 26 27  2  0
 13  4  1  0
 27 15  1  0
 12  7  1  0
 25 17  2  0
M  END
>  <AAScore>  (1) 
1655.4317786424333

>  <RootName>  (1) 
./4ZLY/04_DeltaGEst/trajectory_01/rank_01/lead_0262

$$$$
