confid_8
     RDKit          3D

 27 31  0  0  0  0  0  0  0  0999 V2000
   24.5500   26.3900   36.2500 N   0  0  0  0  0  0  0  0  0  0  0  0
   25.6000   26.1300   35.4000 C   0  0  0  0  0  0  0  0  0  0  0  0
   25.4300   25.4300   34.4200 O   0  0  0  0  0  0  0  0  0  0  0  0
   26.9800   26.6300   35.7100 C   0  0  0  0  0  0  0  0  0  0  0  0
   27.3200   26.8200   36.9800 N   0  0  0  0  0  0  0  0  0  0  0  0
   28.4700   27.4000   37.3100 N   0  0  0  0  0  0  0  0  0  0  0  0
   29.4000   27.6300   36.3700 C   0  0  0  0  0  0  0  0  0  0  0  0
   30.6600   28.0500   36.8000 C   0  0  0  0  0  0  0  0  0  0  0  0
   31.5700   28.3600   35.7800 C   0  0  0  0  0  0  0  0  0  0  0  0
   31.3700   28.1000   34.4300 C   0  0  0  0  0  0  0  0  0  0  0  0
   30.1200   27.5900   34.0500 C   0  0  0  0  0  0  0  0  0  0  0  0
   29.1500   27.3400   35.0300 C   0  0  0  0  0  0  0  0  0  0  0  0
   27.8800   26.8900   34.6600 C   0  0  0  0  0  0  0  0  0  0  0  0
   27.4800   26.6100   33.3700 N   0  0  0  0  0  0  0  0  0  0  0  0
   30.9637   28.3118   38.1812 N   0  0  0  0  0  0  0  0  0  0  0  0
   30.2715   29.4009   38.8899 C   0  0  0  0  0  0  0  0  0  0  0  0
   29.8723   28.9489   40.3008 C   0  0  0  0  0  0  0  0  0  0  0  0
   31.0128   28.2327   40.9516 C   0  0  0  0  0  0  0  0  0  0  0  0
   31.1766   27.8793   42.5856 S   0  0  0  0  0  0  0  0  0  0  0  0
   32.5989   27.0039   42.3402 C   0  0  0  0  0  0  0  0  0  0  0  0
   33.3507   26.2902   43.4149 C   0  0  0  0  0  0  0  0  0  0  0  0
   32.8064   24.8665   43.5702 C   0  0  0  0  0  0  0  0  0  0  0  0
   31.6784   24.6984   44.5771 C   0  0  0  0  0  0  0  0  0  0  0  0
   33.0812   24.2192   44.9186 C   0  0  0  0  0  0  0  0  0  0  0  0
   32.9344   26.9413   41.0307 N   0  0  0  0  0  0  0  0  0  0  0  0
   32.0458   27.6189   40.2575 C   0  0  0  0  0  0  0  0  0  0  0  0
   32.1839   27.7372   38.7689 C   0  0  0  0  0  0  0  0  0  0  0  0
  1  2  1  0
  2  3  2  0
  2  4  1  0
  4  5  2  0
  5  6  1  0
  6  7  2  0
  7  8  1  0
  8  9  2  0
  9 10  1  0
 10 11  2  0
 11 12  1  0
 12 13  2  0
 13 14  1  0
  8 15  1  0
 15 16  1  0
 16 17  1  0
 17 18  1  0
 18 19  1  0
 19 20  1  0
 20 21  1  0
 21 22  1  0
 22 23  1  0
 23 24  1  0
 20 25  2  0
 25 26  1  0
 26 27  1  0
 13  4  1  0
 27 15  1  0
 12  7  1  0
 26 18  2  0
 24 22  1  0
M  END
>  <AAScore>  (1) 
25.56934668011369

>  <RootName>  (1) 
./4ZLY/04_DeltaGEst/trajectory_01/rank_01/lead_0288

$$$$
