confid_8
     RDKit          3D

 29 31  0  0  0  0  0  0  0  0999 V2000
   24.5500   26.3900   36.2500 N   0  0  0  0  0  0  0  0  0  0  0  0
   25.6000   26.1300   35.4000 C   0  0  0  0  0  0  0  0  0  0  0  0
   25.4300   25.4300   34.4200 O   0  0  0  0  0  0  0  0  0  0  0  0
   26.9800   26.6300   35.7100 C   0  0  0  0  0  0  0  0  0  0  0  0
   27.3200   26.8200   36.9800 N   0  0  0  0  0  0  0  0  0  0  0  0
   28.4700   27.4000   37.3100 N   0  0  0  0  0  0  0  0  0  0  0  0
   29.4000   27.6300   36.3700 C   0  0  0  0  0  0  0  0  0  0  0  0
   30.6600   28.0500   36.8000 C   0  0  0  0  0  0  0  0  0  0  0  0
   31.5700   28.3600   35.7800 C   0  0  0  0  0  0  0  0  0  0  0  0
   31.3700   28.1000   34.4300 C   0  0  0  0  0  0  0  0  0  0  0  0
   30.1200   27.5900   34.0500 C   0  0  0  0  0  0  0  0  0  0  0  0
   29.1500   27.3400   35.0300 C   0  0  0  0  0  0  0  0  0  0  0  0
   27.8800   26.8900   34.6600 C   0  0  0  0  0  0  0  0  0  0  0  0
   27.4800   26.6100   33.3700 N   0  0  0  0  0  0  0  0  0  0  0  0
   23.1894   25.8824   36.0174 C   0  0  0  0  0  0  0  0  0  0  0  0
   22.3947   25.8472   37.3441 C   0  0  0  0  0  0  0  0  0  0  0  0
   20.8834   25.8833   37.1026 C   0  0  0  0  0  0  0  0  0  0  0  0
   20.5094   27.0919   36.3507 N   0  0  0  0  0  0  0  0  0  0  0  0
   19.1807   27.6356   36.5047 C   0  0  0  0  0  0  0  0  0  0  0  0
   18.2645   26.9104   36.9815 O   0  0  0  0  0  0  0  0  0  0  0  0
   18.8546   29.0414   36.0672 C   0  0  0  0  0  0  0  0  0  0  0  0
   17.7008   29.5673   36.7959 N   0  0  0  0  0  0  0  0  0  0  0  0
   16.3486   29.2567   36.4278 C   0  0  0  0  0  0  0  0  0  0  0  0
   16.1179   28.5264   35.4248 O   0  0  0  0  0  0  0  0  0  0  0  0
   15.2018   29.7653   37.2631 C   0  0  0  0  0  0  0  0  0  0  0  0
   14.1267   30.4123   36.3828 C   0  0  0  0  0  0  0  0  0  0  0  0
   14.6116   28.6257   38.0978 C   0  0  0  0  0  0  0  0  0  0  0  0
   21.4999   27.7421   35.4756 C   0  0  0  0  0  0  0  0  0  0  0  0
   22.4854   26.7113   34.9127 C   0  0  0  0  0  0  0  0  0  0  0  0
  1  2  1  0
  2  3  2  0
  2  4  1  0
  4  5  2  0
  5  6  1  0
  6  7  2  0
  7  8  1  0
  8  9  2  0
  9 10  1  0
 10 11  2  0
 11 12  1  0
 12 13  2  0
 13 14  1  0
  1 15  1  0
 15 16  1  0
 16 17  1  0
 17 18  1  0
 18 19  1  0
 19 20  2  0
 19 21  1  0
 21 22  1  0
 22 23  1  0
 23 24  2  0
 23 25  1  0
 25 26  1  0
 25 27  1  0
 18 28  1  0
 28 29  1  0
 13  4  1  0
 29 15  1  0
 12  7  1  0
M  END
>  <AAScore>  (1) 
91.16237541110551

>  <RootName>  (1) 
./4ZLY/04_DeltaGEst/trajectory_01/rank_00/lead_0424

$$$$
