confid_1
     RDKit          3D

 29 32  0  0  0  0  0  0  0  0999 V2000
   24.5500   26.3900   36.2500 N   0  0  0  0  0  0  0  0  0  0  0  0
   25.6000   26.1300   35.4000 C   0  0  0  0  0  0  0  0  0  0  0  0
   25.4300   25.4300   34.4200 O   0  0  0  0  0  0  0  0  0  0  0  0
   26.9800   26.6300   35.7100 C   0  0  0  0  0  0  0  0  0  0  0  0
   27.3200   26.8200   36.9800 N   0  0  0  0  0  0  0  0  0  0  0  0
   28.4700   27.4000   37.3100 N   0  0  0  0  0  0  0  0  0  0  0  0
   29.4000   27.6300   36.3700 C   0  0  0  0  0  0  0  0  0  0  0  0
   30.6600   28.0500   36.8000 C   0  0  0  0  0  0  0  0  0  0  0  0
   31.5700   28.3600   35.7800 C   0  0  0  0  0  0  0  0  0  0  0  0
   31.3700   28.1000   34.4300 C   0  0  0  0  0  0  0  0  0  0  0  0
   30.1200   27.5900   34.0500 C   0  0  0  0  0  0  0  0  0  0  0  0
   29.1500   27.3400   35.0300 C   0  0  0  0  0  0  0  0  0  0  0  0
   27.8800   26.8900   34.6600 C   0  0  0  0  0  0  0  0  0  0  0  0
   27.4800   26.6100   33.3700 N   0  0  0  0  0  0  0  0  0  0  0  0
   30.9574   28.3245   38.1786 N   0  0  0  0  0  0  0  0  0  0  0  0
   32.0824   27.6366   38.8207 C   0  0  0  0  0  0  0  0  0  0  0  0
   32.0809   27.8913   40.3298 C   0  0  0  0  0  0  0  0  0  0  0  0
   30.6869   27.8813   40.8127 N   0  0  0  0  0  0  0  0  0  0  0  0
   30.6277   27.8066   42.2854 C   0  0  0  0  0  0  0  0  0  0  0  0
   30.9309   26.4152   42.7538 C   0  0  0  0  0  0  0  0  0  0  0  0
   31.8221   26.0603   43.7501 C   0  0  0  0  0  0  0  0  0  0  0  0
   31.7530   24.6850   43.8553 C   0  0  0  0  0  0  0  0  0  0  0  0
   30.8578   24.2032   42.9693 N   0  0  0  0  0  0  0  0  0  0  0  0
   30.5027   22.8015   42.7730 C   0  0  0  0  0  0  0  0  0  0  0  0
   30.7302   22.4432   41.4567 F   0  0  0  0  0  0  0  0  0  0  0  0
   29.1664   22.6130   43.0757 F   0  0  0  0  0  0  0  0  0  0  0  0
   30.3444   25.2511   42.2972 C   0  0  0  0  0  0  0  0  0  0  0  0
   29.9491   29.0703   40.3251 C   0  0  0  0  0  0  0  0  0  0  0  0
   30.2954   29.4388   38.8659 C   0  0  0  0  0  0  0  0  0  0  0  0
  1  2  1  0
  2  3  2  0
  2  4  1  0
  4  5  2  0
  5  6  1  0
  6  7  2  0
  7  8  1  0
  8  9  2  0
  9 10  1  0
 10 11  2  0
 11 12  1  0
 12 13  2  0
 13 14  1  0
  8 15  1  0
 15 16  1  0
 16 17  1  0
 17 18  1  0
 18 19  1  0
 19 20  1  0
 20 21  1  0
 21 22  2  0
 22 23  1  0
 23 24  1  0
 24 25  1  0
 24 26  1  0
 23 27  1  0
 18 28  1  0
 28 29  1  0
 13  4  1  0
 29 15  1  0
 12  7  1  0
 27 20  2  0
M  END
>  <AAScore>  (1) 
216.44634453679075

>  <RootName>  (1) 
./4ZLY/04_DeltaGEst/trajectory_01/rank_01/lead_0028

$$$$
