confid_8
     RDKit          3D

 30 33  0  0  0  0  0  0  0  0999 V2000
   25.3300   26.2600   34.7600 N   0  0  0  0  0  0  0  0  0  0  0  0
   26.1200   25.9200   33.6900 C   0  0  0  0  0  0  0  0  0  0  0  0
   25.6300   25.1100   32.9400 O   0  0  0  0  0  0  0  0  0  0  0  0
   27.5200   26.3800   33.4600 C   0  0  0  0  0  0  0  0  0  0  0  0
   28.1600   26.6300   34.6100 N   0  0  0  0  0  0  0  0  0  0  0  0
   29.4800   26.8500   34.5700 N   0  0  0  0  0  0  0  0  0  0  0  0
   30.1900   26.7800   33.4400 C   0  0  0  0  0  0  0  0  0  0  0  0
   31.5600   27.0500   33.5000 C   0  0  0  0  0  0  0  0  0  0  0  0
   32.2700   27.2400   32.3100 C   0  0  0  0  0  0  0  0  0  0  0  0
   31.6100   27.2500   31.0800 C   0  0  0  0  0  0  0  0  0  0  0  0
   30.2700   26.8700   31.0600 C   0  0  0  0  0  0  0  0  0  0  0  0
   29.5100   26.6900   32.2300 C   0  0  0  0  0  0  0  0  0  0  0  0
   28.1400   26.4100   32.2000 C   0  0  0  0  0  0  0  0  0  0  0  0
   27.4300   26.1300   31.0500 N   0  0  0  0  0  0  0  0  0  0  0  0
   27.5723   24.8102   30.4184 C   0  0  0  0  0  0  0  0  0  0  0  0
   26.6157   24.6543   29.2332 C   0  0  0  0  0  0  0  0  0  0  0  0
   26.6785   25.8447   28.3700 N   0  0  0  0  0  0  0  0  0  0  0  0
   26.7114   25.7267   26.9322 C   0  0  0  0  0  0  0  0  0  0  0  0
   27.1029   26.7003   26.2330 O   0  0  0  0  0  0  0  0  0  0  0  0
   26.3210   24.4792   26.2441 C   0  0  0  0  0  0  0  0  0  0  0  0
   24.9927   23.9782   26.2542 C   0  0  0  0  0  0  0  0  0  0  0  0
   23.8441   24.7344   26.9155 C   0  0  0  0  0  0  0  0  0  0  0  0
   22.9182   25.3412   25.8554 C   0  0  0  0  0  0  0  0  0  0  0  0
   23.0556   23.8404   27.8839 C   0  0  0  0  0  0  0  0  0  0  0  0
   24.7239   22.7874   25.5512 C   0  0  0  0  0  0  0  0  0  0  0  0
   25.7499   22.1213   24.8818 C   0  0  0  0  0  0  0  0  0  0  0  0
   27.0087   22.6262   24.8882 N   0  0  0  0  0  0  0  0  0  0  0  0
   27.3111   23.7774   25.5404 C   0  0  0  0  0  0  0  0  0  0  0  0
   26.6729   27.1892   28.9691 C   0  0  0  0  0  0  0  0  0  0  0  0
   26.5174   27.1338   30.4922 C   0  0  0  0  0  0  0  0  0  0  0  0
  1  2  1  0
  2  3  2  0
  2  4  1  0
  4  5  2  0
  5  6  1  0
  6  7  2  0
  7  8  1  0
  8  9  2  0
  9 10  1  0
 10 11  2  0
 11 12  1  0
 12 13  2  0
 13 14  1  0
 14 15  1  0
 15 16  1  0
 16 17  1  0
 17 18  1  0
 18 19  2  0
 18 20  1  0
 20 21  2  0
 21 22  1  0
 22 23  1  0
 22 24  1  0
 21 25  1  0
 25 26  2  0
 26 27  1  0
 27 28  2  0
 17 29  1  0
 29 30  1  0
 13  4  1  0
 30 14  1  0
 12  7  1  0
 28 20  1  0
M  END
>  <AAScore>  (1) 
455.3898446990825

>  <RootName>  (1) 
./4ZLY/04_DeltaGEst/trajectory_03/rank_01/lead_0064

$$$$
