confid_12
     RDKit          3D

 28 30  0  0  0  0  0  0  0  0999 V2000
   24.5700   26.8800   35.5900 N   0  0  0  0  0  0  0  0  0  0  0  0
   25.5000   26.4000   34.6900 C   0  0  0  0  0  0  0  0  0  0  0  0
   25.1700   25.5200   33.9100 O   0  0  0  0  0  0  0  0  0  0  0  0
   26.8400   27.0200   34.7400 C   0  0  0  0  0  0  0  0  0  0  0  0
   27.3800   27.2800   35.9400 N   0  0  0  0  0  0  0  0  0  0  0  0
   28.6200   27.7400   36.0300 N   0  0  0  0  0  0  0  0  0  0  0  0
   29.3800   28.0000   34.9600 C   0  0  0  0  0  0  0  0  0  0  0  0
   30.6700   28.5000   35.1300 C   0  0  0  0  0  0  0  0  0  0  0  0
   31.5400   28.6100   34.0300 C   0  0  0  0  0  0  0  0  0  0  0  0
   31.0900   28.2200   32.7700 C   0  0  0  0  0  0  0  0  0  0  0  0
   29.8000   27.7000   32.6000 C   0  0  0  0  0  0  0  0  0  0  0  0
   28.9600   27.5500   33.7100 C   0  0  0  0  0  0  0  0  0  0  0  0
   27.6600   27.0300   33.5900 C   0  0  0  0  0  0  0  0  0  0  0  0
   27.1600   26.7400   32.3400 N   0  0  0  0  0  0  0  0  0  0  0  0
   33.1584   29.2691   34.2364 S   0  0  0  0  0  6  0  0  0  0  0  0
   33.6705   28.9300   35.6086 O   0  0  0  0  0  0  0  0  0  0  0  0
   34.0830   28.6705   33.2133 O   0  0  0  0  0  0  0  0  0  0  0  0
   33.0919   31.0404   34.0328 C   0  0  0  0  0  0  0  0  0  0  0  0
   34.4815   31.6630   34.2061 C   0  0  0  0  0  0  0  0  0  0  0  0
   34.4268   33.1730   34.0337 C   0  0  0  0  0  0  0  0  0  0  0  0
   34.1675   34.0179   35.1489 C   0  0  0  0  0  0  0  0  0  0  0  0
   34.0127   33.4719   36.5476 C   0  0  0  0  0  0  0  0  0  0  0  0
   34.0998   35.4082   34.9676 C   0  0  0  0  0  0  0  0  0  0  0  0
   34.2820   35.9787   33.7058 C   0  0  0  0  0  0  0  0  0  0  0  0
   34.1680   37.4646   33.5257 C   0  0  0  0  0  0  0  0  0  0  0  0
   34.5094   35.1530   32.6025 C   0  0  0  0  0  0  0  0  0  0  0  0
   34.5836   33.7586   32.7463 C   0  0  0  0  0  0  0  0  0  0  0  0
   34.8833   32.9294   31.5212 C   0  0  0  0  0  0  0  0  0  0  0  0
  1  2  1  0
  2  3  2  0
  2  4  1  0
  4  5  2  0
  5  6  1  0
  6  7  2  0
  7  8  1  0
  8  9  2  0
  9 10  1  0
 10 11  2  0
 11 12  1  0
 12 13  2  0
 13 14  1  0
  9 15  1  0
 15 16  2  0
 15 17  2  0
 15 18  1  0
 18 19  1  0
 19 20  1  0
 20 21  2  0
 21 22  1  0
 21 23  1  0
 23 24  2  0
 24 25  1  0
 24 26  1  0
 26 27  2  0
 27 28  1  0
 13  4  1  0
 27 20  1  0
 12  7  1  0
M  END
>  <AAScore>  (1) 
-4.011056975205897

>  <RootName>  (1) 
./4ZLY/04_DeltaGEst/trajectory_05/rank_01/lead_0126

$$$$
