confid_5
     RDKit          3D

 27 30  0  0  0  0  0  0  0  0999 V2000
   24.6900   26.1200   35.5300 N   0  0  0  0  0  0  0  0  0  0  0  0
   25.6600   25.6700   34.6600 C   0  0  0  0  0  0  0  0  0  0  0  0
   25.2400   25.0100   33.7200 O   0  0  0  0  0  0  0  0  0  0  0  0
   27.0300   26.2200   34.8800 C   0  0  0  0  0  0  0  0  0  0  0  0
   27.3500   26.7300   36.0700 N   0  0  0  0  0  0  0  0  0  0  0  0
   28.5700   27.1800   36.3300 N   0  0  0  0  0  0  0  0  0  0  0  0
   29.5300   27.1100   35.3900 C   0  0  0  0  0  0  0  0  0  0  0  0
   30.8300   27.5700   35.6500 C   0  0  0  0  0  0  0  0  0  0  0  0
   31.8500   27.5400   34.6900 C   0  0  0  0  0  0  0  0  0  0  0  0
   31.5100   27.1200   33.4000 C   0  0  0  0  0  0  0  0  0  0  0  0
   30.2200   26.6300   33.1100 C   0  0  0  0  0  0  0  0  0  0  0  0
   29.2400   26.6600   34.1000 C   0  0  0  0  0  0  0  0  0  0  0  0
   27.9300   26.2600   33.8100 C   0  0  0  0  0  0  0  0  0  0  0  0
   27.5200   25.7100   32.6100 N   0  0  0  0  0  0  0  0  0  0  0  0
   31.1907   28.0738   37.0007 C   0  0  0  0  0  0  0  0  0  0  0  0
   32.0597   29.1216   37.2795 C   0  0  0  0  0  0  0  0  0  0  0  0
   32.1337   29.1937   38.6556 C   0  0  0  0  0  0  0  0  0  0  0  0
   33.0158   30.0881   39.4627 C   0  0  0  0  0  0  0  0  0  0  0  0
   32.4900   30.2400   40.8348 N   0  0  0  0  0  0  0  0  0  0  0  0
   31.7338   29.1603   41.4432 C   0  0  0  0  0  0  0  0  0  0  0  0
   31.4178   29.2068   42.6629 O   0  0  0  0  0  0  0  0  0  0  0  0
   31.3263   27.9501   40.6443 C   0  0  0  0  0  0  0  0  0  0  0  0
   31.3735   28.2428   39.2169 N   0  0  0  0  0  0  0  0  0  0  0  0
   30.7991   27.5419   38.2226 C   0  0  0  0  0  0  0  0  0  0  0  0
   32.7314   31.4921   41.5839 C   0  0  0  0  0  0  0  0  0  0  0  0
   34.2142   31.8854   41.5569 C   0  0  0  0  0  0  0  0  0  0  0  0
   31.8452   32.6202   41.0464 C   0  0  0  0  0  0  0  0  0  0  0  0
  1  2  1  0
  2  3  2  0
  2  4  1  0
  4  5  2  0
  5  6  1  0
  6  7  2  0
  7  8  1  0
  8  9  2  0
  9 10  1  0
 10 11  2  0
 11 12  1  0
 12 13  2  0
 13 14  1  0
  8 15  1  0
 15 16  1  0
 16 17  2  0
 17 18  1  0
 18 19  1  0
 19 20  1  0
 20 21  2  0
 20 22  1  0
 22 23  1  0
 23 24  1  0
 19 25  1  0
 25 26  1  0
 25 27  1  0
 13  4  1  0
 24 15  2  0
 12  7  1  0
 23 17  1  0
M  END
>  <AAScore>  (1) 
13.501192917324802

>  <RootName>  (1) 
./4ZLY/04_DeltaGEst/trajectory_02/rank_01/lead_0201

$$$$
