confid_0
     RDKit          3D

 28 32  0  0  0  0  0  0  0  0999 V2000
   24.5500   26.3900   36.2500 N   0  0  0  0  0  0  0  0  0  0  0  0
   25.6000   26.1300   35.4000 C   0  0  0  0  0  0  0  0  0  0  0  0
   25.4300   25.4300   34.4200 O   0  0  0  0  0  0  0  0  0  0  0  0
   26.9800   26.6300   35.7100 C   0  0  0  0  0  0  0  0  0  0  0  0
   27.3200   26.8200   36.9800 N   0  0  0  0  0  0  0  0  0  0  0  0
   28.4700   27.4000   37.3100 N   0  0  0  0  0  0  0  0  0  0  0  0
   29.4000   27.6300   36.3700 C   0  0  0  0  0  0  0  0  0  0  0  0
   30.6600   28.0500   36.8000 C   0  0  0  0  0  0  0  0  0  0  0  0
   31.5700   28.3600   35.7800 C   0  0  0  0  0  0  0  0  0  0  0  0
   31.3700   28.1000   34.4300 C   0  0  0  0  0  0  0  0  0  0  0  0
   30.1200   27.5900   34.0500 C   0  0  0  0  0  0  0  0  0  0  0  0
   29.1500   27.3400   35.0300 C   0  0  0  0  0  0  0  0  0  0  0  0
   27.8800   26.8900   34.6600 C   0  0  0  0  0  0  0  0  0  0  0  0
   27.4800   26.6100   33.3700 N   0  0  0  0  0  0  0  0  0  0  0  0
   23.2904   25.6935   36.2537 C   0  0  0  0  0  0  0  0  0  0  0  0
   22.2352   26.3131   36.6996 N   0  0  0  0  0  0  0  0  0  0  0  0
   20.9347   25.7092   36.7571 C   0  0  0  0  0  0  0  0  0  0  0  0
   20.7838   24.3932   36.5622 C   0  0  0  0  0  0  0  0  0  0  0  0
   22.0180   23.5194   36.3962 C   0  0  1  0  0  0  0  0  0  0  0  0
   21.6907   22.2134   35.6366 C   0  0  0  0  0  0  0  0  0  0  0  0
   20.4390   21.6411   36.1304 N   0  0  0  0  0  0  0  0  0  0  0  0
   19.9786   20.2831   35.8421 C   0  0  0  0  0  0  0  0  0  0  0  0
   18.4726   20.2426   36.2081 C   0  0  0  0  0  0  0  0  0  0  0  0
   18.1449   21.6539   36.5543 C   0  0  0  0  0  0  0  0  0  0  0  0
   16.9984   22.0764   36.8604 O   0  0  0  0  0  0  0  0  0  0  0  0
   19.3391   22.4532   36.4920 C   0  0  0  0  0  0  0  0  0  0  0  0
   19.4510   23.7661   36.6886 C   0  0  0  0  0  0  0  0  0  0  0  0
   23.1574   24.2903   35.6997 C   0  0  0  0  0  0  0  0  0  0  0  0
  1  2  1  0
  2  3  2  0
  2  4  1  0
  4  5  2  0
  5  6  1  0
  6  7  2  0
  7  8  1  0
  8  9  2  0
  9 10  1  0
 10 11  2  0
 11 12  1  0
 12 13  2  0
 13 14  1  0
  1 15  1  0
 15 16  2  0
 16 17  1  0
 17 18  2  0
 18 19  1  0
 19 20  1  6
 20 21  1  0
 21 22  1  0
 22 23  1  0
 23 24  1  0
 24 25  2  0
 24 26  1  0
 26 27  2  0
 19 28  1  0
 13  4  1  0
 28 15  1  0
 12  7  1  0
 27 18  1  0
 26 21  1  0
M  END
>  <AAScore>  (1) 
11069.458412800635

>  <RootName>  (1) 
./4ZLY/04_DeltaGEst/trajectory_01/rank_00/lead_0012

$$$$
