confid_0
     RDKit          3D

 28 31  0  0  0  0  0  0  0  0999 V2000
   24.4800   26.1000   36.1300 N   0  0  0  0  0  0  0  0  0  0  0  0
   25.2500   26.2500   34.9900 C   0  0  0  0  0  0  0  0  0  0  0  0
   24.7400   25.7600   33.9900 O   0  0  0  0  0  0  0  0  0  0  0  0
   26.5900   26.8900   34.9600 C   0  0  0  0  0  0  0  0  0  0  0  0
   27.0600   27.2400   36.1600 N   0  0  0  0  0  0  0  0  0  0  0  0
   28.3000   27.7100   36.2400 N   0  0  0  0  0  0  0  0  0  0  0  0
   29.0500   27.9600   35.1500 C   0  0  0  0  0  0  0  0  0  0  0  0
   30.3400   28.4900   35.2600 C   0  0  0  0  0  0  0  0  0  0  0  0
   31.1100   28.8200   34.1400 C   0  0  0  0  0  0  0  0  0  0  0  0
   30.5200   28.6700   32.8800 C   0  0  0  0  0  0  0  0  0  0  0  0
   29.2900   28.0200   32.7700 C   0  0  0  0  0  0  0  0  0  0  0  0
   28.5200   27.7100   33.8900 C   0  0  0  0  0  0  0  0  0  0  0  0
   27.2700   27.0800   33.7600 C   0  0  0  0  0  0  0  0  0  0  0  0
   26.7500   26.8800   32.4900 N   0  0  0  0  0  0  0  0  0  0  0  0
   23.4994   25.0623   36.3400 C   0  0  0  0  0  0  0  0  0  0  0  0
   23.4664   23.9747   35.5314 N   0  0  0  0  0  0  0  0  0  0  0  0
   22.5755   22.9713   35.7073 C   0  0  0  0  0  0  0  0  0  0  0  0
   21.6388   23.0063   36.7568 C   0  0  0  0  0  0  0  0  0  0  0  0
   20.7132   21.8102   36.8702 C   0  0  0  0  0  0  0  0  0  0  0  0
   19.3430   22.0627   36.3587 N   0  0  0  0  0  0  0  0  0  0  0  0
   19.3332   22.3100   34.9080 C   0  0  0  0  0  0  0  0  0  0  0  0
   18.6219   23.1302   37.0772 C   0  0  0  0  0  0  0  0  0  0  0  0
   18.7573   22.9291   38.5593 C   0  0  0  0  0  0  0  0  0  0  0  0
   19.7653   23.3853   39.2229 N   0  0  0  0  0  0  0  0  0  0  0  0
   20.6613   24.4362   38.7794 C   0  0  0  0  0  0  0  0  0  0  0  0
   21.6403   24.1349   37.6368 C   0  0  0  0  0  0  0  0  0  0  0  0
   22.5904   25.1555   37.4011 C   0  0  0  0  0  0  0  0  0  0  0  0
   22.6148   26.2606   38.1936 F   0  0  0  0  0  0  0  0  0  0  0  0
  1  2  1  0
  2  3  2  0
  2  4  1  0
  4  5  2  0
  5  6  1  0
  6  7  2  0
  7  8  1  0
  8  9  2  0
  9 10  1  0
 10 11  2  0
 11 12  1  0
 12 13  2  0
 13 14  1  0
  1 15  1  0
 15 16  2  0
 16 17  1  0
 17 18  2  0
 18 19  1  0
 19 20  1  0
 20 21  1  0
 20 22  1  0
 22 23  1  0
 23 24  2  0
 24 25  1  0
 25 26  1  0
 26 27  2  0
 27 28  1  0
 13  4  1  0
 27 15  1  0
 12  7  1  0
 26 18  1  0
M  END
>  <AAScore>  (1) 
398.4772833515708

>  <RootName>  (1) 
./4ZLY/04_DeltaGEst/trajectory_00/rank_00/lead_0308

$$$$
