confid_3
     RDKit          3D

 27 30  0  0  0  0  0  0  0  0999 V2000
   25.3300   26.2600   34.7600 N   0  0  0  0  0  0  0  0  0  0  0  0
   26.1200   25.9200   33.6900 C   0  0  0  0  0  0  0  0  0  0  0  0
   25.6300   25.1100   32.9400 O   0  0  0  0  0  0  0  0  0  0  0  0
   27.5200   26.3800   33.4600 C   0  0  0  0  0  0  0  0  0  0  0  0
   28.1600   26.6300   34.6100 N   0  0  0  0  0  0  0  0  0  0  0  0
   29.4800   26.8500   34.5700 N   0  0  0  0  0  0  0  0  0  0  0  0
   30.1900   26.7800   33.4400 C   0  0  0  0  0  0  0  0  0  0  0  0
   31.5600   27.0500   33.5000 C   0  0  0  0  0  0  0  0  0  0  0  0
   32.2700   27.2400   32.3100 C   0  0  0  0  0  0  0  0  0  0  0  0
   31.6100   27.2500   31.0800 C   0  0  0  0  0  0  0  0  0  0  0  0
   30.2700   26.8700   31.0600 C   0  0  0  0  0  0  0  0  0  0  0  0
   29.5100   26.6900   32.2300 C   0  0  0  0  0  0  0  0  0  0  0  0
   28.1400   26.4100   32.2000 C   0  0  0  0  0  0  0  0  0  0  0  0
   27.4300   26.1300   31.0500 N   0  0  0  0  0  0  0  0  0  0  0  0
   23.8920   26.2007   34.7851 C   0  0  0  0  0  0  0  0  0  0  0  0
   23.2614   26.0236   35.9777 N   0  0  0  0  0  0  0  0  0  0  0  0
   21.9074   25.9868   36.0844 C   0  0  0  0  0  0  0  0  0  0  0  0
   21.1058   26.1304   34.9450 C   0  0  0  0  0  0  0  0  0  0  0  0
   19.6045   26.1398   35.0676 C   0  0  0  0  0  0  0  0  0  0  0  0
   18.9560   25.6662   33.7994 C   0  0  0  0  0  0  0  0  0  0  0  0
   17.7993   25.1664   33.8492 O   0  0  0  0  0  0  0  0  0  0  0  0
   19.6350   25.8162   32.5359 N   0  0  0  0  0  0  0  0  0  0  0  0
   19.0443   25.2831   31.3016 C   0  0  0  0  0  0  0  0  0  0  0  0
   19.2513   23.7748   31.2225 C   0  0  0  0  0  0  0  0  0  0  0  0
   20.8846   26.5858   32.4744 C   0  0  0  0  0  0  0  0  0  0  0  0
   21.7257   26.3410   33.7001 C   0  0  0  0  0  0  0  0  0  0  0  0
   23.1241   26.3926   33.6236 C   0  0  0  0  0  0  0  0  0  0  0  0
  1  2  1  0
  2  3  2  0
  2  4  1  0
  4  5  2  0
  5  6  1  0
  6  7  2  0
  7  8  1  0
  8  9  2  0
  9 10  1  0
 10 11  2  0
 11 12  1  0
 12 13  2  0
 13 14  1  0
  1 15  1  0
 15 16  2  0
 16 17  1  0
 17 18  2  0
 18 19  1  0
 19 20  1  0
 20 21  2  0
 20 22  1  0
 22 23  1  0
 23 24  1  0
 22 25  1  0
 25 26  1  0
 26 27  2  0
 13  4  1  0
 27 15  1  0
 12  7  1  0
 26 18  1  0
M  END
>  <AAScore>  (1) 
3009.354221405949

>  <RootName>  (1) 
./4ZLY/04_DeltaGEst/trajectory_03/rank_00/lead_0348

$$$$
