confid_6
     RDKit          3D

 29 32  0  0  0  0  0  0  0  0999 V2000
   24.2000   26.2400   35.6900 N   0  0  0  0  0  0  0  0  0  0  0  0
   24.8500   26.2800   34.4800 C   0  0  0  0  0  0  0  0  0  0  0  0
   24.3100   25.7400   33.5400 O   0  0  0  0  0  0  0  0  0  0  0  0
   26.1800   26.9700   34.4700 C   0  0  0  0  0  0  0  0  0  0  0  0
   26.6500   27.6000   35.5500 N   0  0  0  0  0  0  0  0  0  0  0  0
   27.7900   28.2700   35.6200 N   0  0  0  0  0  0  0  0  0  0  0  0
   28.5400   28.3000   34.5100 C   0  0  0  0  0  0  0  0  0  0  0  0
   29.7700   28.9400   34.5600 C   0  0  0  0  0  0  0  0  0  0  0  0
   30.7000   28.8900   33.5000 C   0  0  0  0  0  0  0  0  0  0  0  0
   30.3700   28.1400   32.3700 C   0  0  0  0  0  0  0  0  0  0  0  0
   29.1200   27.5200   32.2800 C   0  0  0  0  0  0  0  0  0  0  0  0
   28.2100   27.6100   33.3300 C   0  0  0  0  0  0  0  0  0  0  0  0
   26.9700   26.9700   33.3100 C   0  0  0  0  0  0  0  0  0  0  0  0
   26.5300   26.2400   32.2200 N   0  0  0  0  0  0  0  0  0  0  0  0
   30.1541   29.6532   35.7471 N   0  0  0  0  0  0  0  0  0  0  0  0
   31.1037   29.0199   36.6726 C   0  0  0  0  0  0  0  0  0  0  0  0
   30.4033   28.5668   37.9603 C   0  0  0  0  0  0  0  0  0  0  0  0
   29.4787   29.6347   38.5647 C   0  0  0  0  0  0  0  0  0  0  0  0
   30.0788   30.9750   38.4813 N   0  0  0  0  0  0  0  0  0  0  0  0
   30.8679   31.4446   39.5926 C   0  0  0  0  0  0  0  0  0  0  0  0
   31.5270   30.6180   40.2803 O   0  0  0  0  0  0  0  0  0  0  0  0
   30.9291   32.8789   39.9465 C   0  0  0  0  0  0  0  0  0  0  0  0
   29.7832   33.6883   39.8553 C   0  0  0  0  0  0  0  0  0  0  0  0
   29.8410   35.0359   40.2211 C   0  0  0  0  0  0  0  0  0  0  0  0
   31.0387   35.5843   40.6869 C   0  0  0  0  0  0  0  0  0  0  0  0
   32.1791   34.7838   40.7943 C   0  0  0  0  0  0  0  0  0  0  0  0
   32.1253   33.4352   40.4319 C   0  0  0  0  0  0  0  0  0  0  0  0
   30.1394   31.7252   37.2088 C   0  0  0  0  0  0  0  0  0  0  0  0
   29.5548   30.9782   35.9911 C   0  0  0  0  0  0  0  0  0  0  0  0
  1  2  1  0
  2  3  2  0
  2  4  1  0
  4  5  2  0
  5  6  1  0
  6  7  2  0
  7  8  1  0
  8  9  2  0
  9 10  1  0
 10 11  2  0
 11 12  1  0
 12 13  2  0
 13 14  1  0
  8 15  1  0
 15 16  1  0
 16 17  1  0
 17 18  1  0
 18 19  1  0
 19 20  1  0
 20 21  2  0
 20 22  1  0
 22 23  2  0
 23 24  1  0
 24 25  2  0
 25 26  1  0
 26 27  2  0
 19 28  1  0
 28 29  1  0
 13  4  1  0
 29 15  1  0
 12  7  1  0
 27 22  1  0
M  END
>  <AAScore>  (1) 
-4.317721849890285

>  <RootName>  (1) 
./4ZLY/04_DeltaGEst/trajectory_04/rank_01/lead_0404

$$$$
