confid_0
     RDKit          3D

 27 30  0  0  0  0  0  0  0  0999 V2000
   24.2000   26.2400   35.6900 N   0  0  0  0  0  0  0  0  0  0  0  0
   24.8500   26.2800   34.4800 C   0  0  0  0  0  0  0  0  0  0  0  0
   24.3100   25.7400   33.5400 O   0  0  0  0  0  0  0  0  0  0  0  0
   26.1800   26.9700   34.4700 C   0  0  0  0  0  0  0  0  0  0  0  0
   26.6500   27.6000   35.5500 N   0  0  0  0  0  0  0  0  0  0  0  0
   27.7900   28.2700   35.6200 N   0  0  0  0  0  0  0  0  0  0  0  0
   28.5400   28.3000   34.5100 C   0  0  0  0  0  0  0  0  0  0  0  0
   29.7700   28.9400   34.5600 C   0  0  0  0  0  0  0  0  0  0  0  0
   30.7000   28.8900   33.5000 C   0  0  0  0  0  0  0  0  0  0  0  0
   30.3700   28.1400   32.3700 C   0  0  0  0  0  0  0  0  0  0  0  0
   29.1200   27.5200   32.2800 C   0  0  0  0  0  0  0  0  0  0  0  0
   28.2100   27.6100   33.3300 C   0  0  0  0  0  0  0  0  0  0  0  0
   26.9700   26.9700   33.3100 C   0  0  0  0  0  0  0  0  0  0  0  0
   26.5300   26.2400   32.2200 N   0  0  0  0  0  0  0  0  0  0  0  0
   30.1445   29.6592   35.7491 N   0  0  0  0  0  0  0  0  0  0  0  0
   29.4679   30.9294   36.0462 C   0  0  0  0  0  0  0  0  0  0  0  0
   30.4018   31.9073   36.7060 C   0  0  0  0  0  0  0  0  0  0  0  0
   30.4281   32.2014   38.0538 C   0  0  0  0  0  0  0  0  0  0  0  0
   31.4637   33.1050   38.1918 C   0  0  0  0  0  0  0  0  0  0  0  0
   32.0278   33.3350   36.9896 N   0  0  0  0  0  0  0  0  0  0  0  0
   31.3893   32.5970   36.0951 N   0  0  0  0  0  0  0  0  0  0  0  0
   31.7025   32.6253   34.6676 C   0  0  0  0  0  0  0  0  0  0  0  0
   30.9950   33.7949   33.9940 C   0  0  0  0  0  0  0  0  0  0  0  0
   30.8678   28.9309   36.7987 C   0  0  0  0  0  0  0  0  0  0  0  0
   32.3762   28.9946   36.5336 C   0  0  0  0  0  0  0  0  0  0  0  0
   32.9681   27.8153   35.7779 C   0  0  0  0  0  0  0  0  0  0  0  0
   33.1948   27.9490   37.2747 C   0  0  0  0  0  0  0  0  0  0  0  0
  1  2  1  0
  2  3  2  0
  2  4  1  0
  4  5  2  0
  5  6  1  0
  6  7  2  0
  7  8  1  0
  8  9  2  0
  9 10  1  0
 10 11  2  0
 11 12  1  0
 12 13  2  0
 13 14  1  0
  8 15  1  0
 15 16  1  0
 16 17  1  0
 17 18  2  0
 18 19  1  0
 19 20  2  0
 20 21  1  0
 21 22  1  0
 22 23  1  0
 15 24  1  0
 24 25  1  0
 25 26  1  0
 26 27  1  0
 13  4  1  0
 21 17  1  0
 27 25  1  0
 12  7  1  0
M  END
>  <AAScore>  (1) 
-0.3578327325510114

>  <RootName>  (1) 
./4ZLY/04_DeltaGEst/trajectory_04/rank_01/lead_0337

$$$$
