confid_18
     RDKit          3D

 29 32  0  0  0  0  0  0  0  0999 V2000
   24.5700   26.8800   35.5900 N   0  0  0  0  0  0  0  0  0  0  0  0
   25.5000   26.4000   34.6900 C   0  0  0  0  0  0  0  0  0  0  0  0
   25.1700   25.5200   33.9100 O   0  0  0  0  0  0  0  0  0  0  0  0
   26.8400   27.0200   34.7400 C   0  0  0  0  0  0  0  0  0  0  0  0
   27.3800   27.2800   35.9400 N   0  0  0  0  0  0  0  0  0  0  0  0
   28.6200   27.7400   36.0300 N   0  0  0  0  0  0  0  0  0  0  0  0
   29.3800   28.0000   34.9600 C   0  0  0  0  0  0  0  0  0  0  0  0
   30.6700   28.5000   35.1300 C   0  0  0  0  0  0  0  0  0  0  0  0
   31.5400   28.6100   34.0300 C   0  0  0  0  0  0  0  0  0  0  0  0
   31.0900   28.2200   32.7700 C   0  0  0  0  0  0  0  0  0  0  0  0
   29.8000   27.7000   32.6000 C   0  0  0  0  0  0  0  0  0  0  0  0
   28.9600   27.5500   33.7100 C   0  0  0  0  0  0  0  0  0  0  0  0
   27.6600   27.0300   33.5900 C   0  0  0  0  0  0  0  0  0  0  0  0
   27.1600   26.7400   32.3400 N   0  0  0  0  0  0  0  0  0  0  0  0
   23.3629   26.1929   35.9630 C   0  0  0  0  0  0  0  0  0  0  0  0
   22.2704   26.9224   36.3055 N   0  0  0  0  0  0  0  0  0  0  0  0
   21.1020   26.3449   36.6833 C   0  0  0  0  0  0  0  0  0  0  0  0
   20.9763   24.9474   36.7362 C   0  0  0  0  0  0  0  0  0  0  0  0
   19.6423   24.3640   37.1736 C   0  0  0  0  0  0  0  0  0  0  0  0
   19.2523   23.2045   36.3511 N   0  0  0  0  0  0  0  0  0  0  0  0
   18.2200   22.3842   37.0080 C   0  0  0  0  0  0  0  0  0  0  0  0
   19.0232   23.5282   34.9172 C   0  0  2  0  0  0  0  0  0  0  0  0
   17.5414   23.5436   34.4912 C   0  0  0  0  0  0  0  0  0  0  0  0
   19.8437   22.5520   34.0639 C   0  0  0  0  0  0  0  0  0  0  0  0
   21.2231   22.8704   34.1567 O   0  0  0  0  0  0  0  0  0  0  0  0
   21.9346   22.0244   35.0488 C   0  0  0  0  0  0  0  0  0  0  0  0
   22.1026   22.6406   36.4547 C   0  0  0  0  0  0  0  0  0  0  0  0
   22.1180   24.1560   36.4332 C   0  0  0  0  0  0  0  0  0  0  0  0
   23.3055   24.7939   36.0412 C   0  0  0  0  0  0  0  0  0  0  0  0
  1  2  1  0
  2  3  2  0
  2  4  1  0
  4  5  2  0
  5  6  1  0
  6  7  2  0
  7  8  1  0
  8  9  2  0
  9 10  1  0
 10 11  2  0
 11 12  1  0
 12 13  2  0
 13 14  1  0
  1 15  1  0
 15 16  2  0
 16 17  1  0
 17 18  2  0
 18 19  1  0
 19 20  1  0
 20 21  1  0
 20 22  1  0
 22 23  1  6
 22 24  1  0
 24 25  1  0
 25 26  1  0
 26 27  1  0
 27 28  1  0
 28 29  2  0
 13  4  1  0
 29 15  1  0
 12  7  1  0
 28 18  1  0
M  END
>  <AAScore>  (1) 
4099.431806323862

>  <RootName>  (1) 
./4ZLY/04_DeltaGEst/trajectory_05/rank_00/lead_0220

$$$$
