confid_6
     RDKit          3D

 28 31  0  0  0  0  0  0  0  0999 V2000
   25.3300   26.2600   34.7600 N   0  0  0  0  0  0  0  0  0  0  0  0
   26.1200   25.9200   33.6900 C   0  0  0  0  0  0  0  0  0  0  0  0
   25.6300   25.1100   32.9400 O   0  0  0  0  0  0  0  0  0  0  0  0
   27.5200   26.3800   33.4600 C   0  0  0  0  0  0  0  0  0  0  0  0
   28.1600   26.6300   34.6100 N   0  0  0  0  0  0  0  0  0  0  0  0
   29.4800   26.8500   34.5700 N   0  0  0  0  0  0  0  0  0  0  0  0
   30.1900   26.7800   33.4400 C   0  0  0  0  0  0  0  0  0  0  0  0
   31.5600   27.0500   33.5000 C   0  0  0  0  0  0  0  0  0  0  0  0
   32.2700   27.2400   32.3100 C   0  0  0  0  0  0  0  0  0  0  0  0
   31.6100   27.2500   31.0800 C   0  0  0  0  0  0  0  0  0  0  0  0
   30.2700   26.8700   31.0600 C   0  0  0  0  0  0  0  0  0  0  0  0
   29.5100   26.6900   32.2300 C   0  0  0  0  0  0  0  0  0  0  0  0
   28.1400   26.4100   32.2000 C   0  0  0  0  0  0  0  0  0  0  0  0
   27.4300   26.1300   31.0500 N   0  0  0  0  0  0  0  0  0  0  0  0
   23.9033   26.0683   34.8135 C   0  0  0  0  0  0  0  0  0  0  0  0
   23.1373   25.9529   33.7066 N   0  0  0  0  0  0  0  0  0  0  0  0
   21.8802   25.8726   34.1796 C   0  0  0  0  0  0  0  0  0  0  0  0
   21.9010   25.9476   35.5560 C   0  0  0  0  0  0  0  0  0  0  0  0
   20.6751   25.9822   36.4217 C   0  0  0  0  0  0  0  0  0  0  0  0
   19.8539   27.1758   36.0981 N   0  0  0  0  0  0  0  0  0  0  0  0
   18.4279   26.8747   36.3126 C   0  0  0  0  0  0  0  0  0  0  0  0
   20.2419   28.3613   36.9015 C   0  0  0  0  0  0  0  0  0  0  0  0
   21.4694   29.0840   36.3094 C   0  0  0  0  0  0  0  0  0  0  0  0
   22.3782   29.4474   37.3357 O   0  0  0  0  0  0  0  0  0  0  0  0
   23.5643   28.6719   37.2981 C   0  0  0  0  0  0  0  0  0  0  0  0
   23.4036   27.3705   38.1113 C   0  0  0  0  0  0  0  0  0  0  0  0
   23.7064   26.0754   37.3368 C   0  0  0  0  0  0  0  0  0  0  0  0
   23.1832   26.0760   35.9625 N   0  0  0  0  0  0  0  0  0  0  0  0
  1  2  1  0
  2  3  2  0
  2  4  1  0
  4  5  2  0
  5  6  1  0
  6  7  2  0
  7  8  1  0
  8  9  2  0
  9 10  1  0
 10 11  2  0
 11 12  1  0
 12 13  2  0
 13 14  1  0
  1 15  1  0
 15 16  2  0
 16 17  1  0
 17 18  2  0
 18 19  1  0
 19 20  1  0
 20 21  1  0
 20 22  1  0
 22 23  1  0
 23 24  1  0
 24 25  1  0
 25 26  1  0
 26 27  1  0
 27 28  1  0
 13  4  1  0
 28 15  1  0
 12  7  1  0
 28 18  1  0
M  END
>  <AAScore>  (1) 
3179.0818655707085

>  <RootName>  (1) 
./4ZLY/04_DeltaGEst/trajectory_03/rank_00/lead_0012

$$$$
