confid_6
     RDKit          3D

 29 32  0  0  0  0  0  0  0  0999 V2000
   24.6900   26.1200   35.5300 N   0  0  0  0  0  0  0  0  0  0  0  0
   25.6600   25.6700   34.6600 C   0  0  0  0  0  0  0  0  0  0  0  0
   25.2400   25.0100   33.7200 O   0  0  0  0  0  0  0  0  0  0  0  0
   27.0300   26.2200   34.8800 C   0  0  0  0  0  0  0  0  0  0  0  0
   27.3500   26.7300   36.0700 N   0  0  0  0  0  0  0  0  0  0  0  0
   28.5700   27.1800   36.3300 N   0  0  0  0  0  0  0  0  0  0  0  0
   29.5300   27.1100   35.3900 C   0  0  0  0  0  0  0  0  0  0  0  0
   30.8300   27.5700   35.6500 C   0  0  0  0  0  0  0  0  0  0  0  0
   31.8500   27.5400   34.6900 C   0  0  0  0  0  0  0  0  0  0  0  0
   31.5100   27.1200   33.4000 C   0  0  0  0  0  0  0  0  0  0  0  0
   30.2200   26.6300   33.1100 C   0  0  0  0  0  0  0  0  0  0  0  0
   29.2400   26.6600   34.1000 C   0  0  0  0  0  0  0  0  0  0  0  0
   27.9300   26.2600   33.8100 C   0  0  0  0  0  0  0  0  0  0  0  0
   27.5200   25.7100   32.6100 N   0  0  0  0  0  0  0  0  0  0  0  0
   23.2887   26.2248   35.2244 C   0  0  0  0  0  0  0  0  0  0  0  0
   22.3829   25.9955   36.2063 N   0  0  0  0  0  0  0  0  0  0  0  0
   21.0467   26.1044   36.0009 C   0  0  0  0  0  0  0  0  0  0  0  0
   20.5367   26.4676   34.7412 C   0  0  0  0  0  0  0  0  0  0  0  0
   19.0258   26.5963   34.6207 C   0  0  0  0  0  0  0  0  0  0  0  0
   18.5329   27.9895   34.5829 N   0  0  0  0  0  0  0  0  0  0  0  0
   18.6609   28.6307   35.9033 C   0  0  0  0  0  0  0  0  0  0  0  0
   19.1460   28.8431   33.5403 C   0  0  0  0  0  0  0  0  0  0  0  0
   18.9624   28.2998   32.1085 C   0  0  0  0  0  0  0  0  0  0  0  0
   17.6408   27.9330   31.9197 F   0  0  0  0  0  0  0  0  0  0  0  0
   19.2420   29.3379   31.2345 F   0  0  0  0  0  0  0  0  0  0  0  0
   19.8778   27.1106   31.7408 C   0  0  0  0  0  0  0  0  0  0  0  0
   21.1444   27.1618   32.3931 O   0  0  0  0  0  0  0  0  0  0  0  0
   21.4698   26.7397   33.6957 C   0  0  0  0  0  0  0  0  0  0  0  0
   22.8390   26.6244   33.9617 C   0  0  0  0  0  0  0  0  0  0  0  0
  1  2  1  0
  2  3  2  0
  2  4  1  0
  4  5  2  0
  5  6  1  0
  6  7  2  0
  7  8  1  0
  8  9  2  0
  9 10  1  0
 10 11  2  0
 11 12  1  0
 12 13  2  0
 13 14  1  0
  1 15  1  0
 15 16  2  0
 16 17  1  0
 17 18  2  0
 18 19  1  0
 19 20  1  0
 20 21  1  0
 20 22  1  0
 22 23  1  0
 23 24  1  0
 23 25  1  0
 23 26  1  0
 26 27  1  0
 27 28  1  0
 28 29  2  0
 13  4  1  0
 29 15  1  0
 12  7  1  0
 28 18  1  0
M  END
>  <AAScore>  (1) 
503.78198439544457

>  <RootName>  (1) 
./4ZLY/04_DeltaGEst/trajectory_02/rank_00/lead_0383

$$$$
