confid_10
     RDKit          3D

 29 33  0  0  0  0  0  0  0  0999 V2000
   24.5500   26.3900   36.2500 N   0  0  0  0  0  0  0  0  0  0  0  0
   25.6000   26.1300   35.4000 C   0  0  0  0  0  0  0  0  0  0  0  0
   25.4300   25.4300   34.4200 O   0  0  0  0  0  0  0  0  0  0  0  0
   26.9800   26.6300   35.7100 C   0  0  0  0  0  0  0  0  0  0  0  0
   27.3200   26.8200   36.9800 N   0  0  0  0  0  0  0  0  0  0  0  0
   28.4700   27.4000   37.3100 N   0  0  0  0  0  0  0  0  0  0  0  0
   29.4000   27.6300   36.3700 C   0  0  0  0  0  0  0  0  0  0  0  0
   30.6600   28.0500   36.8000 C   0  0  0  0  0  0  0  0  0  0  0  0
   31.5700   28.3600   35.7800 C   0  0  0  0  0  0  0  0  0  0  0  0
   31.3700   28.1000   34.4300 C   0  0  0  0  0  0  0  0  0  0  0  0
   30.1200   27.5900   34.0500 C   0  0  0  0  0  0  0  0  0  0  0  0
   29.1500   27.3400   35.0300 C   0  0  0  0  0  0  0  0  0  0  0  0
   27.8800   26.8900   34.6600 C   0  0  0  0  0  0  0  0  0  0  0  0
   27.4800   26.6100   33.3700 N   0  0  0  0  0  0  0  0  0  0  0  0
   23.4652   25.6244   35.5951 C   0  0  0  0  0  0  0  0  0  0  0  0
   22.7140   25.0943   35.1416 N   0  0  0  0  0  0  0  0  0  0  0  0
   21.8784   24.3806   34.3454 C   0  0  0  0  0  0  0  0  0  0  0  0
   21.0389   25.0135   33.4948 C   0  0  0  0  0  0  0  0  0  0  0  0
   20.0084   25.1434   32.4760 C   0  0  0  0  0  0  0  0  0  0  0  0
   19.9492   26.5410   32.6412 O   0  0  0  0  0  0  0  0  0  0  0  0
   21.0917   26.4747   33.4214 C   0  0  1  0  0  0  0  0  0  0  0  0
   20.9444   27.0862   34.7989 C   0  0  0  0  0  0  0  0  0  0  0  0
   20.3477   26.1703   35.8169 C   0  0  0  0  0  0  0  0  0  0  0  0
   21.1841   25.8420   36.9643 C   0  0  0  0  0  0  0  0  0  0  0  0
   22.4865   25.6337   37.1275 C   0  0  0  0  0  0  0  0  0  0  0  0
   23.1836   25.3494   38.1742 N   0  0  0  0  0  0  0  0  0  0  0  0
   22.5230   25.2168   39.3946 C   0  0  0  0  0  0  0  0  0  0  0  0
   21.1731   25.4051   39.3742 C   0  0  0  0  0  0  0  0  0  0  0  0
   20.4860   25.7091   38.2315 C   0  0  0  0  0  0  0  0  0  0  0  0
  1  2  1  0
  2  3  2  0
  2  4  1  0
  4  5  2  0
  5  6  1  0
  6  7  2  0
  7  8  1  0
  8  9  2  0
  9 10  1  0
 10 11  2  0
 11 12  1  0
 12 13  2  0
 13 14  1  0
  1 15  1  0
 15 16  2  0
 16 17  1  0
 17 18  2  0
 18 19  1  0
 19 20  1  0
 20 21  1  0
 21 22  1  1
 22 23  1  0
 23 24  1  0
 24 25  2  0
 25 26  1  0
 26 27  2  0
 27 28  1  0
 28 29  2  0
 13  4  1  0
 25 15  1  0
 12  7  1  0
 21 18  1  0
 29 24  1  0
M  END
>  <AAScore>  (1) 
745.5571298799136

>  <RootName>  (1) 
./4ZLY/04_DeltaGEst/trajectory_01/rank_00/lead_0147

$$$$
