confid_5
     RDKit          3D

 27 30  0  0  0  0  0  0  0  0999 V2000
   24.6900   26.1200   35.5300 N   0  0  0  0  0  0  0  0  0  0  0  0
   25.6600   25.6700   34.6600 C   0  0  0  0  0  0  0  0  0  0  0  0
   25.2400   25.0100   33.7200 O   0  0  0  0  0  0  0  0  0  0  0  0
   27.0300   26.2200   34.8800 C   0  0  0  0  0  0  0  0  0  0  0  0
   27.3500   26.7300   36.0700 N   0  0  0  0  0  0  0  0  0  0  0  0
   28.5700   27.1800   36.3300 N   0  0  0  0  0  0  0  0  0  0  0  0
   29.5300   27.1100   35.3900 C   0  0  0  0  0  0  0  0  0  0  0  0
   30.8300   27.5700   35.6500 C   0  0  0  0  0  0  0  0  0  0  0  0
   31.8500   27.5400   34.6900 C   0  0  0  0  0  0  0  0  0  0  0  0
   31.5100   27.1200   33.4000 C   0  0  0  0  0  0  0  0  0  0  0  0
   30.2200   26.6300   33.1100 C   0  0  0  0  0  0  0  0  0  0  0  0
   29.2400   26.6600   34.1000 C   0  0  0  0  0  0  0  0  0  0  0  0
   27.9300   26.2600   33.8100 C   0  0  0  0  0  0  0  0  0  0  0  0
   27.5200   25.7100   32.6100 N   0  0  0  0  0  0  0  0  0  0  0  0
   23.3199   26.3334   35.1528 C   0  0  0  0  0  0  0  0  0  0  0  0
   22.3434   25.9222   35.8868 N   0  0  0  0  0  0  0  0  0  0  0  0
   21.1429   26.2562   35.1998 C   0  0  0  0  0  0  0  0  0  0  0  0
   21.3706   26.8650   34.0362 C   0  0  0  0  0  0  0  0  0  0  0  0
   20.2673   27.6039   33.3150 C   0  0  0  0  0  0  0  0  0  0  0  0
   20.2983   27.4347   31.7865 C   0  0  0  0  0  0  0  0  0  0  0  0
   20.8762   28.5900   31.0563 N   0  0  0  0  0  0  0  0  0  0  0  0
   19.9083   29.6951   30.9413 C   0  0  0  0  0  0  0  0  0  0  0  0
   22.1631   29.0793   31.5967 C   0  0  0  0  0  0  0  0  0  0  0  0
   23.2402   27.9683   31.6024 C   0  0  2  0  0  0  0  0  0  0  0  0
   23.6371   27.5618   33.0026 C   0  0  0  0  0  0  0  0  0  0  0  0
   22.8421   26.9811   33.9221 C   0  0  0  0  0  0  0  0  0  0  0  0
   24.4874   28.4159   30.8216 C   0  0  0  0  0  0  0  0  0  0  0  0
  1  2  1  0
  2  3  2  0
  2  4  1  0
  4  5  2  0
  5  6  1  0
  6  7  2  0
  7  8  1  0
  8  9  2  0
  9 10  1  0
 10 11  2  0
 11 12  1  0
 12 13  2  0
 13 14  1  0
  1 15  1  0
 15 16  2  0
 16 17  1  0
 17 18  2  0
 18 19  1  0
 19 20  1  0
 20 21  1  0
 21 22  1  0
 21 23  1  0
 23 24  1  0
 24 25  1  0
 25 26  2  0
 24 27  1  6
 13  4  1  0
 26 15  1  0
 12  7  1  0
 26 18  1  0
M  END
>  <AAScore>  (1) 
13770.265435865393

>  <RootName>  (1) 
./4ZLY/04_DeltaGEst/trajectory_02/rank_00/lead_0434

$$$$
