confid_10
     RDKit          3D

 28 31  0  0  0  0  0  0  0  0999 V2000
   24.6900   26.1200   35.5300 N   0  0  0  0  0  0  0  0  0  0  0  0
   25.6600   25.6700   34.6600 C   0  0  0  0  0  0  0  0  0  0  0  0
   25.2400   25.0100   33.7200 O   0  0  0  0  0  0  0  0  0  0  0  0
   27.0300   26.2200   34.8800 C   0  0  0  0  0  0  0  0  0  0  0  0
   27.3500   26.7300   36.0700 N   0  0  0  0  0  0  0  0  0  0  0  0
   28.5700   27.1800   36.3300 N   0  0  0  0  0  0  0  0  0  0  0  0
   29.5300   27.1100   35.3900 C   0  0  0  0  0  0  0  0  0  0  0  0
   30.8300   27.5700   35.6500 C   0  0  0  0  0  0  0  0  0  0  0  0
   31.8500   27.5400   34.6900 C   0  0  0  0  0  0  0  0  0  0  0  0
   31.5100   27.1200   33.4000 C   0  0  0  0  0  0  0  0  0  0  0  0
   30.2200   26.6300   33.1100 C   0  0  0  0  0  0  0  0  0  0  0  0
   29.2400   26.6600   34.1000 C   0  0  0  0  0  0  0  0  0  0  0  0
   27.9300   26.2600   33.8100 C   0  0  0  0  0  0  0  0  0  0  0  0
   27.5200   25.7100   32.6100 N   0  0  0  0  0  0  0  0  0  0  0  0
   31.1336   28.1098   36.9434 N   0  0  0  0  0  0  0  0  0  0  0  0
   30.9953   29.5432   37.1959 C   0  0  0  0  0  0  0  0  0  0  0  0
   30.0482   29.7561   38.3745 C   0  0  0  0  0  0  0  0  0  0  0  0
   30.4441   28.9018   39.5005 N   0  0  0  0  0  0  0  0  0  0  0  0
   30.1010   29.3352   40.8264 C   0  0  0  0  0  0  0  0  0  0  0  0
   29.0922   28.7899   41.6002 C   0  0  0  0  0  0  0  0  0  0  0  0
   29.0431   29.5660   42.7450 C   0  0  0  0  0  0  0  0  0  0  0  0
   30.0082   30.5507   42.6182 C   0  0  0  0  0  0  0  0  0  0  0  0
   30.6628   30.3927   41.4503 N   0  0  0  0  0  0  0  0  0  0  0  0
   31.7183   31.2621   40.9419 C   0  0  0  0  0  0  0  0  0  0  0  0
   28.0300   29.4585   43.8418 C   0  0  0  0  0  0  0  0  0  0  0  0
   26.7209   30.1230   43.4309 C   0  0  0  0  0  0  0  0  0  0  0  0
   30.6263   27.4649   39.2533 C   0  0  0  0  0  0  0  0  0  0  0  0
   31.5427   27.2393   38.0471 C   0  0  0  0  0  0  0  0  0  0  0  0
  1  2  1  0
  2  3  2  0
  2  4  1  0
  4  5  2  0
  5  6  1  0
  6  7  2  0
  7  8  1  0
  8  9  2  0
  9 10  1  0
 10 11  2  0
 11 12  1  0
 12 13  2  0
 13 14  1  0
  8 15  1  0
 15 16  1  0
 16 17  1  0
 17 18  1  0
 18 19  1  0
 19 20  2  0
 20 21  1  0
 21 22  2  0
 22 23  1  0
 23 24  1  0
 21 25  1  0
 25 26  1  0
 18 27  1  0
 27 28  1  0
 13  4  1  0
 28 15  1  0
 12  7  1  0
 23 19  1  0
M  END
>  <AAScore>  (1) 
-6.292798271701786

>  <RootName>  (1) 
./4ZLY/04_DeltaGEst/trajectory_02/rank_01/lead_0345

$$$$
