confid_14
     RDKit          3D

 27 30  0  0  0  0  0  0  0  0999 V2000
   24.5700   26.8800   35.5900 N   0  0  0  0  0  0  0  0  0  0  0  0
   25.5000   26.4000   34.6900 C   0  0  0  0  0  0  0  0  0  0  0  0
   25.1700   25.5200   33.9100 O   0  0  0  0  0  0  0  0  0  0  0  0
   26.8400   27.0200   34.7400 C   0  0  0  0  0  0  0  0  0  0  0  0
   27.3800   27.2800   35.9400 N   0  0  0  0  0  0  0  0  0  0  0  0
   28.6200   27.7400   36.0300 N   0  0  0  0  0  0  0  0  0  0  0  0
   29.3800   28.0000   34.9600 C   0  0  0  0  0  0  0  0  0  0  0  0
   30.6700   28.5000   35.1300 C   0  0  0  0  0  0  0  0  0  0  0  0
   31.5400   28.6100   34.0300 C   0  0  0  0  0  0  0  0  0  0  0  0
   31.0900   28.2200   32.7700 C   0  0  0  0  0  0  0  0  0  0  0  0
   29.8000   27.7000   32.6000 C   0  0  0  0  0  0  0  0  0  0  0  0
   28.9600   27.5500   33.7100 C   0  0  0  0  0  0  0  0  0  0  0  0
   27.6600   27.0300   33.5900 C   0  0  0  0  0  0  0  0  0  0  0  0
   27.1600   26.7400   32.3400 N   0  0  0  0  0  0  0  0  0  0  0  0
   23.1504   26.7561   35.4114 C   0  0  0  0  0  0  0  0  0  0  0  0
   22.3967   26.5746   36.4561 N   0  0  0  0  0  0  0  0  0  0  0  0
   20.9652   26.5044   36.3734 C   0  0  0  0  0  0  0  0  0  0  0  0
   20.3414   26.4151   35.1841 C   0  0  0  0  0  0  0  0  0  0  0  0
   18.8374   26.6315   35.1564 C   0  0  0  0  0  0  0  0  0  0  0  0
   18.2650   26.7931   33.8032 N   0  0  0  0  0  0  0  0  0  0  0  0
   17.7197   25.5212   33.2888 C   0  0  0  0  0  0  0  0  0  0  0  0
   19.2010   27.4931   32.8932 C   0  0  2  0  0  0  0  0  0  0  0  0
   18.5147   27.9403   31.5942 C   0  0  0  0  0  0  0  0  0  0  0  0
   20.4493   26.6418   32.6132 C   0  0  0  0  0  0  0  0  0  0  0  0
   21.1867   26.2041   33.9203 C   0  0  2  0  0  0  0  0  0  0  0  0
   21.5503   24.7022   33.8141 C   0  0  0  0  0  0  0  0  0  0  0  0
   22.4986   27.0234   34.0693 C   0  0  0  0  0  0  0  0  0  0  0  0
  1  2  1  0
  2  3  2  0
  2  4  1  0
  4  5  2  0
  5  6  1  0
  6  7  2  0
  7  8  1  0
  8  9  2  0
  9 10  1  0
 10 11  2  0
 11 12  1  0
 12 13  2  0
 13 14  1  0
  1 15  1  0
 15 16  2  0
 16 17  1  0
 17 18  2  0
 18 19  1  0
 19 20  1  0
 20 21  1  0
 20 22  1  0
 22 23  1  6
 22 24  1  0
 24 25  1  0
 25 26  1  6
 25 27  1  0
 13  4  1  0
 27 15  1  0
 12  7  1  0
 25 18  1  0
M  END
>  <AAScore>  (1) 
658.3051708070998

>  <RootName>  (1) 
./4ZLY/04_DeltaGEst/trajectory_05/rank_00/lead_0354

$$$$
