confid_5
     RDKit          3D

 30 32  0  0  0  0  0  0  0  0999 V2000
   24.5500   26.3900   36.2500 N   0  0  0  0  0  0  0  0  0  0  0  0
   25.6000   26.1300   35.4000 C   0  0  0  0  0  0  0  0  0  0  0  0
   25.4300   25.4300   34.4200 O   0  0  0  0  0  0  0  0  0  0  0  0
   26.9800   26.6300   35.7100 C   0  0  0  0  0  0  0  0  0  0  0  0
   27.3200   26.8200   36.9800 N   0  0  0  0  0  0  0  0  0  0  0  0
   28.4700   27.4000   37.3100 N   0  0  0  0  0  0  0  0  0  0  0  0
   29.4000   27.6300   36.3700 C   0  0  0  0  0  0  0  0  0  0  0  0
   30.6600   28.0500   36.8000 C   0  0  0  0  0  0  0  0  0  0  0  0
   31.5700   28.3600   35.7800 C   0  0  0  0  0  0  0  0  0  0  0  0
   31.3700   28.1000   34.4300 C   0  0  0  0  0  0  0  0  0  0  0  0
   30.1200   27.5900   34.0500 C   0  0  0  0  0  0  0  0  0  0  0  0
   29.1500   27.3400   35.0300 C   0  0  0  0  0  0  0  0  0  0  0  0
   27.8800   26.8900   34.6600 C   0  0  0  0  0  0  0  0  0  0  0  0
   27.4800   26.6100   33.3700 N   0  0  0  0  0  0  0  0  0  0  0  0
   23.1642   26.0043   35.9509 C   0  0  2  0  0  0  0  0  0  0  0  0
   22.5493   27.0466   34.9982 C   0  0  0  0  0  0  0  0  0  0  0  0
   21.1171   26.7022   34.5759 C   0  0  0  0  0  0  0  0  0  0  0  0
   20.1623   27.0812   35.6267 N   0  0  0  0  0  0  0  0  0  0  0  0
   19.5300   28.3785   35.5530 C   0  0  0  0  0  0  0  0  0  0  0  0
   20.1236   29.3282   34.9713 O   0  0  0  0  0  0  0  0  0  0  0  0
   18.1712   28.6393   36.1526 C   0  0  0  0  0  0  0  0  0  0  0  0
   17.1953   29.1545   35.0888 C   0  0  0  0  0  0  0  0  0  0  0  0
   15.8689   29.3810   35.6626 N   0  0  0  0  0  0  0  0  0  0  0  0
   14.7842   29.8715   34.8641 C   0  0  0  0  0  0  0  0  0  0  0  0
   14.9632   30.1440   33.6463 O   0  0  0  0  0  0  0  0  0  0  0  0
   13.4183   30.0247   35.4615 C   0  0  0  0  0  0  0  0  0  0  0  0
   12.6701   28.6967   35.4369 C   0  0  0  0  0  0  0  0  0  0  0  0
   19.8795   26.1919   36.7678 C   0  0  0  0  0  0  0  0  0  0  0  0
   21.0039   25.1914   37.0806 C   0  0  0  0  0  0  0  0  0  0  0  0
   22.3741   25.8664   37.2695 C   0  0  0  0  0  0  0  0  0  0  0  0
  1  2  1  0
  2  3  2  0
  2  4  1  0
  4  5  2  0
  5  6  1  0
  6  7  2  0
  7  8  1  0
  8  9  2  0
  9 10  1  0
 10 11  2  0
 11 12  1  0
 12 13  2  0
 13 14  1  0
 15  1  1  1
 15 16  1  0
 16 17  1  0
 17 18  1  0
 18 19  1  0
 19 20  2  0
 19 21  1  0
 21 22  1  0
 22 23  1  0
 23 24  1  0
 24 25  2  0
 24 26  1  0
 26 27  1  0
 18 28  1  0
 28 29  1  0
 29 30  1  0
 13  4  1  0
 30 15  1  0
 12  7  1  0
M  END
>  <AAScore>  (1) 
654.9845434085312

>  <RootName>  (1) 
./4ZLY/04_DeltaGEst/trajectory_01/rank_00/lead_0289

$$$$
