confid_10
     RDKit          3D

 29 32  0  0  0  0  0  0  0  0999 V2000
   24.6900   26.1200   35.5300 N   0  0  0  0  0  0  0  0  0  0  0  0
   25.6600   25.6700   34.6600 C   0  0  0  0  0  0  0  0  0  0  0  0
   25.2400   25.0100   33.7200 O   0  0  0  0  0  0  0  0  0  0  0  0
   27.0300   26.2200   34.8800 C   0  0  0  0  0  0  0  0  0  0  0  0
   27.3500   26.7300   36.0700 N   0  0  0  0  0  0  0  0  0  0  0  0
   28.5700   27.1800   36.3300 N   0  0  0  0  0  0  0  0  0  0  0  0
   29.5300   27.1100   35.3900 C   0  0  0  0  0  0  0  0  0  0  0  0
   30.8300   27.5700   35.6500 C   0  0  0  0  0  0  0  0  0  0  0  0
   31.8500   27.5400   34.6900 C   0  0  0  0  0  0  0  0  0  0  0  0
   31.5100   27.1200   33.4000 C   0  0  0  0  0  0  0  0  0  0  0  0
   30.2200   26.6300   33.1100 C   0  0  0  0  0  0  0  0  0  0  0  0
   29.2400   26.6600   34.1000 C   0  0  0  0  0  0  0  0  0  0  0  0
   27.9300   26.2600   33.8100 C   0  0  0  0  0  0  0  0  0  0  0  0
   27.5200   25.7100   32.6100 N   0  0  0  0  0  0  0  0  0  0  0  0
   23.4892   25.3968   35.8634 C   0  0  0  0  0  0  0  0  0  0  0  0
   22.4316   26.1026   36.1374 N   0  0  0  0  0  0  0  0  0  0  0  0
   21.0901   25.7761   36.5328 C   0  0  0  0  0  0  0  0  0  0  0  0
   20.6408   24.5877   36.9528 C   0  0  0  0  0  0  0  0  0  0  0  0
   19.5522   24.5269   37.7749 O   0  0  0  0  0  0  0  0  0  0  0  0
   19.5998   23.3151   38.4904 C   0  0  0  0  0  0  0  0  0  0  0  0
   20.7699   22.6216   38.0826 O   0  0  0  0  0  0  0  0  0  0  0  0
   21.2072   23.2110   36.8626 C   0  0  1  0  0  0  0  0  0  0  0  0
   20.5296   22.3195   35.7481 C   0  0  0  0  0  0  0  0  0  0  0  0
   20.5996   22.5860   34.2087 C   0  0  0  0  0  0  0  0  0  0  0  0
   19.4781   21.7641   33.5308 C   0  0  0  0  0  0  0  0  0  0  0  0
   20.3919   24.0692   33.8422 C   0  0  0  0  0  0  0  0  0  0  0  0
   21.8275   22.1093   33.7138 O   0  0  0  0  0  0  0  0  0  0  0  0
   22.7467   23.1715   36.9059 C   0  0  0  0  0  0  0  0  0  0  0  0
   23.4897   23.8932   35.7847 C   0  0  0  0  0  0  0  0  0  0  0  0
  1  2  1  0
  2  3  2  0
  2  4  1  0
  4  5  2  0
  5  6  1  0
  6  7  2  0
  7  8  1  0
  8  9  2  0
  9 10  1  0
 10 11  2  0
 11 12  1  0
 12 13  2  0
 13 14  1  0
  1 15  1  0
 15 16  2  0
 16 17  1  0
 17 18  2  0
 18 19  1  0
 19 20  1  0
 20 21  1  0
 21 22  1  0
 22 23  1  6
 23 24  1  0
 24 25  1  0
 24 26  1  0
 24 27  1  0
 22 28  1  0
 28 29  1  0
 13  4  1  0
 29 15  1  0
 12  7  1  0
 22 18  1  0
M  END
>  <AAScore>  (1) 
1353.7016725195438

>  <RootName>  (1) 
./4ZLY/04_DeltaGEst/trajectory_02/rank_00/lead_0087

$$$$
