confid_9
     RDKit          3D

 28 31  0  0  0  0  0  0  0  0999 V2000
   24.2000   26.2400   35.6900 N   0  0  0  0  0  0  0  0  0  0  0  0
   24.8500   26.2800   34.4800 C   0  0  0  0  0  0  0  0  0  0  0  0
   24.3100   25.7400   33.5400 O   0  0  0  0  0  0  0  0  0  0  0  0
   26.1800   26.9700   34.4700 C   0  0  0  0  0  0  0  0  0  0  0  0
   26.6500   27.6000   35.5500 N   0  0  0  0  0  0  0  0  0  0  0  0
   27.7900   28.2700   35.6200 N   0  0  0  0  0  0  0  0  0  0  0  0
   28.5400   28.3000   34.5100 C   0  0  0  0  0  0  0  0  0  0  0  0
   29.7700   28.9400   34.5600 C   0  0  0  0  0  0  0  0  0  0  0  0
   30.7000   28.8900   33.5000 C   0  0  0  0  0  0  0  0  0  0  0  0
   30.3700   28.1400   32.3700 C   0  0  0  0  0  0  0  0  0  0  0  0
   29.1200   27.5200   32.2800 C   0  0  0  0  0  0  0  0  0  0  0  0
   28.2100   27.6100   33.3300 C   0  0  0  0  0  0  0  0  0  0  0  0
   26.9700   26.9700   33.3100 C   0  0  0  0  0  0  0  0  0  0  0  0
   26.5300   26.2400   32.2200 N   0  0  0  0  0  0  0  0  0  0  0  0
   30.1660   29.6506   35.7613 N   0  0  0  0  0  0  0  0  0  0  0  0
   30.5251   28.7785   36.9118 C   0  0  0  0  0  0  0  0  0  0  0  0
   31.5515   29.3239   37.9262 C   0  0  0  0  0  0  0  0  0  0  0  0
   31.1540   30.5872   38.5785 N   0  0  0  0  0  0  0  0  0  0  0  0
   29.9229   30.5102   39.3984 C   0  0  0  0  0  0  0  0  0  0  0  0
   28.8741   31.5613   38.9531 C   0  0  1  0  0  0  0  0  0  0  0  0
   29.3920   32.7845   38.1788 C   0  0  0  0  0  0  0  0  0  0  0  0
   28.5548   32.3660   36.9659 C   0  0  2  0  0  0  0  0  0  0  0  0
   28.0338   31.1567   37.7402 C   0  0  0  0  0  0  0  0  0  0  0  0
   29.3067   32.1059   35.6080 C   0  0  0  0  0  0  0  0  0  0  0  0
   28.2605   31.6797   34.5555 C   0  0  0  0  0  0  0  0  0  0  0  0
   29.8752   33.4700   35.1419 C   0  0  0  0  0  0  0  0  0  0  0  0
   30.5171   31.0932   35.6448 C   0  0  0  0  0  0  0  0  0  0  0  0
   32.2826   31.1253   39.3587 C   0  0  0  0  0  0  0  0  0  0  0  0
  1  2  1  0
  2  3  2  0
  2  4  1  0
  4  5  2  0
  5  6  1  0
  6  7  2  0
  7  8  1  0
  8  9  2  0
  9 10  1  0
 10 11  2  0
 11 12  1  0
 12 13  2  0
 13 14  1  0
  8 15  1  0
 15 16  1  0
 16 17  1  0
 17 18  1  0
 18 19  1  0
 20 19  1  6
 20 21  1  0
 22 21  1  1
 22 23  1  0
 22 24  1  0
 24 25  1  0
 24 26  1  0
 24 27  1  0
 18 28  1  0
 13  4  1  0
 27 15  1  0
 12  7  1  0
 23 20  1  0
M  END
>  <AAScore>  (1) 
2.1930583853520567

>  <RootName>  (1) 
./4ZLY/04_DeltaGEst/trajectory_04/rank_01/lead_0255

$$$$
