confid_13
     RDKit          3D

 28 32  0  0  0  0  0  0  0  0999 V2000
   25.3300   26.2600   34.7600 N   0  0  0  0  0  0  0  0  0  0  0  0
   26.1200   25.9200   33.6900 C   0  0  0  0  0  0  0  0  0  0  0  0
   25.6300   25.1100   32.9400 O   0  0  0  0  0  0  0  0  0  0  0  0
   27.5200   26.3800   33.4600 C   0  0  0  0  0  0  0  0  0  0  0  0
   28.1600   26.6300   34.6100 N   0  0  0  0  0  0  0  0  0  0  0  0
   29.4800   26.8500   34.5700 N   0  0  0  0  0  0  0  0  0  0  0  0
   30.1900   26.7800   33.4400 C   0  0  0  0  0  0  0  0  0  0  0  0
   31.5600   27.0500   33.5000 C   0  0  0  0  0  0  0  0  0  0  0  0
   32.2700   27.2400   32.3100 C   0  0  0  0  0  0  0  0  0  0  0  0
   31.6100   27.2500   31.0800 C   0  0  0  0  0  0  0  0  0  0  0  0
   30.2700   26.8700   31.0600 C   0  0  0  0  0  0  0  0  0  0  0  0
   29.5100   26.6900   32.2300 C   0  0  0  0  0  0  0  0  0  0  0  0
   28.1400   26.4100   32.2000 C   0  0  0  0  0  0  0  0  0  0  0  0
   27.4300   26.1300   31.0500 N   0  0  0  0  0  0  0  0  0  0  0  0
   23.9207   25.9808   34.8797 C   0  0  0  0  0  0  0  0  0  0  0  0
   23.1509   25.5343   33.8589 N   0  0  0  0  0  0  0  0  0  0  0  0
   21.9043   25.4852   34.3765 C   0  0  0  0  0  0  0  0  0  0  0  0
   21.9447   25.9084   35.6860 C   0  0  0  0  0  0  0  0  0  0  0  0
   20.7954   26.0794   36.6290 C   0  0  0  0  0  0  0  0  0  0  0  0
   21.2434   26.5837   37.9424 N   0  0  0  0  0  0  0  0  0  0  0  0
   20.2340   27.0167   38.8817 C   0  0  0  0  0  0  0  0  0  0  0  0
   19.0963   27.3651   38.4627 O   0  0  0  0  0  0  0  0  0  0  0  0
   20.5110   27.1010   40.3581 C   0  0  0  0  0  0  0  0  0  0  0  0
   19.4453   26.4773   41.2493 C   0  0  0  0  0  0  0  0  0  0  0  0
   20.7648   25.7597   41.0310 C   0  0  0  0  0  0  0  0  0  0  0  0
   22.6406   26.3824   38.3795 C   0  0  0  0  0  0  0  0  0  0  0  0
   23.6306   26.7778   37.2770 C   0  0  0  0  0  0  0  0  0  0  0  0
   23.2092   26.2029   36.0051 N   0  0  0  0  0  0  0  0  0  0  0  0
  1  2  1  0
  2  3  2  0
  2  4  1  0
  4  5  2  0
  5  6  1  0
  6  7  2  0
  7  8  1  0
  8  9  2  0
  9 10  1  0
 10 11  2  0
 11 12  1  0
 12 13  2  0
 13 14  1  0
  1 15  1  0
 15 16  2  0
 16 17  1  0
 17 18  2  0
 18 19  1  0
 19 20  1  0
 20 21  1  0
 21 22  2  0
 21 23  1  0
 23 24  1  0
 24 25  1  0
 20 26  1  0
 26 27  1  0
 27 28  1  0
 13  4  1  0
 28 15  1  0
 12  7  1  0
 28 18  1  0
 25 23  1  0
M  END
>  <AAScore>  (1) 
7160.696278822751

>  <RootName>  (1) 
./4ZLY/04_DeltaGEst/trajectory_03/rank_00/lead_0179

$$$$
