confid_11
     RDKit          3D

 28 31  0  0  0  0  0  0  0  0999 V2000
   24.2000   26.2400   35.6900 N   0  0  0  0  0  0  0  0  0  0  0  0
   24.8500   26.2800   34.4800 C   0  0  0  0  0  0  0  0  0  0  0  0
   24.3100   25.7400   33.5400 O   0  0  0  0  0  0  0  0  0  0  0  0
   26.1800   26.9700   34.4700 C   0  0  0  0  0  0  0  0  0  0  0  0
   26.6500   27.6000   35.5500 N   0  0  0  0  0  0  0  0  0  0  0  0
   27.7900   28.2700   35.6200 N   0  0  0  0  0  0  0  0  0  0  0  0
   28.5400   28.3000   34.5100 C   0  0  0  0  0  0  0  0  0  0  0  0
   29.7700   28.9400   34.5600 C   0  0  0  0  0  0  0  0  0  0  0  0
   30.7000   28.8900   33.5000 C   0  0  0  0  0  0  0  0  0  0  0  0
   30.3700   28.1400   32.3700 C   0  0  0  0  0  0  0  0  0  0  0  0
   29.1200   27.5200   32.2800 C   0  0  0  0  0  0  0  0  0  0  0  0
   28.2100   27.6100   33.3300 C   0  0  0  0  0  0  0  0  0  0  0  0
   26.9700   26.9700   33.3100 C   0  0  0  0  0  0  0  0  0  0  0  0
   26.5300   26.2400   32.2200 N   0  0  0  0  0  0  0  0  0  0  0  0
   30.1352   29.6733   35.7398 N   0  0  0  0  0  0  0  0  0  0  0  0
   31.1290   29.0842   36.6553 C   0  0  0  0  0  0  0  0  0  0  0  0
   31.6113   30.0802   37.7198 C   0  0  0  0  0  0  0  0  0  0  0  0
   30.4577   30.8462   38.2896 C   0  0  0  0  0  0  0  0  0  0  0  0
   30.4199   31.1515   39.6132 N   0  0  0  0  0  0  0  0  0  0  0  0
   29.4086   31.8807   40.1599 C   0  0  0  0  0  0  0  0  0  0  0  0
   28.3781   32.3770   39.3372 C   0  0  0  0  0  0  0  0  0  0  0  0
   27.3566   33.1536   39.9086 O   0  0  0  0  0  0  0  0  0  0  0  0
   26.2699   33.7181   39.1821 C   0  0  0  0  0  0  0  0  0  0  0  0
   28.4114   32.0801   37.9621 C   0  0  0  0  0  0  0  0  0  0  0  0
   29.4492   31.3025   37.4360 C   0  0  0  0  0  0  0  0  0  0  0  0
   29.5367   30.9989   35.9655 C   0  0  0  0  0  0  0  0  0  0  0  0
   29.4515   32.1926   41.6304 C   0  0  0  0  0  0  0  0  0  0  0  0
   30.0987   33.5514   41.8768 C   0  0  0  0  0  0  0  0  0  0  0  0
  1  2  1  0
  2  3  2  0
  2  4  1  0
  4  5  2  0
  5  6  1  0
  6  7  2  0
  7  8  1  0
  8  9  2  0
  9 10  1  0
 10 11  2  0
 11 12  1  0
 12 13  2  0
 13 14  1  0
  8 15  1  0
 15 16  1  0
 16 17  1  0
 17 18  1  0
 18 19  2  0
 19 20  1  0
 20 21  2  0
 21 22  1  0
 22 23  1  0
 21 24  1  0
 24 25  2  0
 25 26  1  0
 20 27  1  0
 27 28  1  0
 13  4  1  0
 26 15  1  0
 12  7  1  0
 25 18  1  0
M  END
>  <AAScore>  (1) 
-6.097081089898455

>  <RootName>  (1) 
./4ZLY/04_DeltaGEst/trajectory_04/rank_01/lead_0196

$$$$
