confid_5
     RDKit          3D

 28 31  0  0  0  0  0  0  0  0999 V2000
   24.2000   26.2400   35.6900 N   0  0  0  0  0  0  0  0  0  0  0  0
   24.8500   26.2800   34.4800 C   0  0  0  0  0  0  0  0  0  0  0  0
   24.3100   25.7400   33.5400 O   0  0  0  0  0  0  0  0  0  0  0  0
   26.1800   26.9700   34.4700 C   0  0  0  0  0  0  0  0  0  0  0  0
   26.6500   27.6000   35.5500 N   0  0  0  0  0  0  0  0  0  0  0  0
   27.7900   28.2700   35.6200 N   0  0  0  0  0  0  0  0  0  0  0  0
   28.5400   28.3000   34.5100 C   0  0  0  0  0  0  0  0  0  0  0  0
   29.7700   28.9400   34.5600 C   0  0  0  0  0  0  0  0  0  0  0  0
   30.7000   28.8900   33.5000 C   0  0  0  0  0  0  0  0  0  0  0  0
   30.3700   28.1400   32.3700 C   0  0  0  0  0  0  0  0  0  0  0  0
   29.1200   27.5200   32.2800 C   0  0  0  0  0  0  0  0  0  0  0  0
   28.2100   27.6100   33.3300 C   0  0  0  0  0  0  0  0  0  0  0  0
   26.9700   26.9700   33.3100 C   0  0  0  0  0  0  0  0  0  0  0  0
   26.5300   26.2400   32.2200 N   0  0  0  0  0  0  0  0  0  0  0  0
   22.8423   25.8000   35.8391 C   0  0  0  0  0  0  0  0  0  0  0  0
   22.5158   24.7640   36.6376 N   0  0  0  0  0  0  0  0  0  0  0  0
   21.1788   24.6744   36.5336 C   0  0  0  0  0  0  0  0  0  0  0  0
   20.7168   25.6613   35.6918 C   0  0  0  0  0  0  0  0  0  0  0  0
   19.2708   25.8577   35.3366 C   0  0  0  0  0  0  0  0  0  0  0  0
   19.1072   25.9013   33.8744 N   0  0  0  0  0  0  0  0  0  0  0  0
   19.7581   26.9675   33.1378 C   0  0  0  0  0  0  0  0  0  0  0  0
   19.8145   26.9405   31.8757 O   0  0  0  0  0  0  0  0  0  0  0  0
   20.4593   28.0771   33.8722 C   0  0  0  0  0  0  0  0  0  0  0  0
   21.8215   27.6032   34.4044 C   0  0  0  0  0  0  0  0  0  0  0  0
   21.7731   26.3887   35.2469 N   0  0  0  0  0  0  0  0  0  0  0  0
   18.3197   24.8453   33.1987 C   0  0  0  0  0  0  0  0  0  0  0  0
   19.2204   23.9356   32.3493 C   0  0  0  0  0  0  0  0  0  0  0  0
   17.1731   25.4488   32.3699 C   0  0  0  0  0  0  0  0  0  0  0  0
  1  2  1  0
  2  3  2  0
  2  4  1  0
  4  5  2  0
  5  6  1  0
  6  7  2  0
  7  8  1  0
  8  9  2  0
  9 10  1  0
 10 11  2  0
 11 12  1  0
 12 13  2  0
 13 14  1  0
  1 15  1  0
 15 16  2  0
 16 17  1  0
 17 18  2  0
 18 19  1  0
 19 20  1  0
 20 21  1  0
 21 22  2  0
 21 23  1  0
 23 24  1  0
 24 25  1  0
 20 26  1  0
 26 27  1  0
 26 28  1  0
 13  4  1  0
 25 15  1  0
 12  7  1  0
 25 18  1  0
M  END
>  <AAScore>  (1) 
3463.3826090815423

>  <RootName>  (1) 
./4ZLY/04_DeltaGEst/trajectory_04/rank_00/lead_0150

$$$$
