confid_16
     RDKit          3D

 32 35  0  0  0  0  0  0  0  0999 V2000
   24.5500   26.3900   36.2500 N   0  0  0  0  0  0  0  0  0  0  0  0
   25.6000   26.1300   35.4000 C   0  0  0  0  0  0  0  0  0  0  0  0
   25.4300   25.4300   34.4200 O   0  0  0  0  0  0  0  0  0  0  0  0
   26.9800   26.6300   35.7100 C   0  0  0  0  0  0  0  0  0  0  0  0
   27.3200   26.8200   36.9800 N   0  0  0  0  0  0  0  0  0  0  0  0
   28.4700   27.4000   37.3100 N   0  0  0  0  0  0  0  0  0  0  0  0
   29.4000   27.6300   36.3700 C   0  0  0  0  0  0  0  0  0  0  0  0
   30.6600   28.0500   36.8000 C   0  0  0  0  0  0  0  0  0  0  0  0
   31.5700   28.3600   35.7800 C   0  0  0  0  0  0  0  0  0  0  0  0
   31.3700   28.1000   34.4300 C   0  0  0  0  0  0  0  0  0  0  0  0
   30.1200   27.5900   34.0500 C   0  0  0  0  0  0  0  0  0  0  0  0
   29.1500   27.3400   35.0300 C   0  0  0  0  0  0  0  0  0  0  0  0
   27.8800   26.8900   34.6600 C   0  0  0  0  0  0  0  0  0  0  0  0
   27.4800   26.6100   33.3700 N   0  0  0  0  0  0  0  0  0  0  0  0
   30.9981   28.2728   38.2317 C   0  0  0  0  0  0  0  0  0  0  0  0
   30.8861   27.0852   39.1067 C   0  0  0  0  0  0  0  0  0  0  0  0
   30.8238   27.0839   40.4338 C   0  0  0  0  0  0  0  0  0  0  0  0
   30.4907   25.8736   41.2480 C   0  0  0  0  0  0  0  0  0  0  0  0
   30.4013   26.4050   42.6054 N   0  0  0  0  0  0  0  0  0  0  0  0
   30.4740   25.6085   43.7976 C   0  0  0  0  0  0  0  0  0  0  0  0
   31.4150   25.8160   44.6120 O   0  0  0  0  0  0  0  0  0  0  0  0
   29.4653   24.5050   44.0955 C   0  0  0  0  0  0  0  0  0  0  0  0
   29.9345   23.2234   43.3901 C   0  0  0  0  0  0  0  0  0  0  0  0
   28.0490   24.8604   43.5715 C   0  0  0  0  0  0  0  0  0  0  0  0
   29.4477   24.2079   45.4925 O   0  0  0  0  0  0  0  0  0  0  0  0
   28.8616   25.2284   46.2819 C   0  0  0  0  0  0  0  0  0  0  0  0
   30.7683   27.7815   42.5732 C   0  0  0  0  0  0  0  0  0  0  0  0
   30.9891   28.2005   41.3420 C   0  0  0  0  0  0  0  0  0  0  0  0
   31.6097   29.4508   41.0640 N   0  0  0  0  0  0  0  0  0  0  0  0
   31.8555   30.0090   39.9181 C   0  0  0  0  0  0  0  0  0  0  0  0
   32.5143   31.3548   39.9408 C   0  0  0  0  0  0  0  0  0  0  0  0
   31.3934   29.5086   38.5988 C   0  0  0  0  0  0  0  0  0  0  0  0
  1  2  1  0
  2  3  2  0
  2  4  1  0
  4  5  2  0
  5  6  1  0
  6  7  2  0
  7  8  1  0
  8  9  2  0
  9 10  1  0
 10 11  2  0
 11 12  1  0
 12 13  2  0
 13 14  1  0
  8 15  1  0
 15 16  1  0
 16 17  2  0
 17 18  1  0
 18 19  1  0
 19 20  1  0
 20 21  2  0
 20 22  1  0
 22 23  1  0
 22 24  1  0
 22 25  1  0
 25 26  1  0
 19 27  1  0
 27 28  2  0
 28 29  1  0
 29 30  2  0
 30 31  1  0
 30 32  1  0
 13  4  1  0
 32 15  2  0
 12  7  1  0
 28 17  1  0
M  END
>  <AAScore>  (1) 
571.6334329130176

>  <RootName>  (1) 
./4ZLY/04_DeltaGEst/trajectory_01/rank_01/lead_0318

$$$$
