confid_13
     RDKit          3D

 27 30  0  0  0  0  0  0  0  0999 V2000
   24.4800   26.1000   36.1300 N   0  0  0  0  0  0  0  0  0  0  0  0
   25.2500   26.2500   34.9900 C   0  0  0  0  0  0  0  0  0  0  0  0
   24.7400   25.7600   33.9900 O   0  0  0  0  0  0  0  0  0  0  0  0
   26.5900   26.8900   34.9600 C   0  0  0  0  0  0  0  0  0  0  0  0
   27.0600   27.2400   36.1600 N   0  0  0  0  0  0  0  0  0  0  0  0
   28.3000   27.7100   36.2400 N   0  0  0  0  0  0  0  0  0  0  0  0
   29.0500   27.9600   35.1500 C   0  0  0  0  0  0  0  0  0  0  0  0
   30.3400   28.4900   35.2600 C   0  0  0  0  0  0  0  0  0  0  0  0
   31.1100   28.8200   34.1400 C   0  0  0  0  0  0  0  0  0  0  0  0
   30.5200   28.6700   32.8800 C   0  0  0  0  0  0  0  0  0  0  0  0
   29.2900   28.0200   32.7700 C   0  0  0  0  0  0  0  0  0  0  0  0
   28.5200   27.7100   33.8900 C   0  0  0  0  0  0  0  0  0  0  0  0
   27.2700   27.0800   33.7600 C   0  0  0  0  0  0  0  0  0  0  0  0
   26.7500   26.8800   32.4900 N   0  0  0  0  0  0  0  0  0  0  0  0
   24.7611   25.8197   37.5829 C   0  0  0  0  0  0  0  0  0  0  0  0
   23.8113   25.2348   38.2611 N   0  0  0  0  0  0  0  0  0  0  0  0
   23.7222   25.0039   39.7096 C   0  0  0  0  0  0  0  0  0  0  0  0
   24.7089   24.8841   40.6543 C   0  0  0  0  0  0  0  0  0  0  0  0
   26.0511   24.1966   40.3794 C   0  0  0  0  0  0  0  0  0  0  0  0
   26.4700   23.4937   41.5017 F   0  0  0  0  0  0  0  0  0  0  0  0
   25.8920   23.2673   39.3608 F   0  0  0  0  0  0  0  0  0  0  0  0
   27.1217   25.2485   39.9982 C   0  0  0  0  0  0  0  0  0  0  0  0
   26.4169   26.2351   39.1444 C   0  0  0  0  0  0  0  0  0  0  0  0
   26.0929   25.7381   38.0153 N   0  0  0  0  0  0  0  0  0  0  0  0
   25.6359   27.2664   39.7290 O   0  0  0  0  0  0  0  0  0  0  0  0
   25.3234   27.3226   41.1504 C   0  0  0  0  0  0  0  0  0  0  0  0
   24.6972   26.0239   41.7197 C   0  0  0  0  0  0  0  0  0  0  0  0
  1  2  1  0
  2  3  2  0
  2  4  1  0
  4  5  2  0
  5  6  1  0
  6  7  2  0
  7  8  1  0
  8  9  2  0
  9 10  1  0
 10 11  2  0
 11 12  1  0
 12 13  2  0
 13 14  1  0
  1 15  1  0
 15 16  2  0
 16 17  1  0
 17 18  2  0
 18 19  1  0
 19 20  1  0
 19 21  1  0
 19 22  1  0
 22 23  1  0
 23 24  2  0
 23 25  1  0
 25 26  1  0
 26 27  1  0
 13  4  1  0
 24 15  1  0
 12  7  1  0
 27 18  1  0
M  END
>  <AAScore>  (1) 
196.91020960075284

>  <RootName>  (1) 
./4ZLY/04_DeltaGEst/trajectory_00/rank_00/lead_0443

$$$$
