confid_0
     RDKit          3D

 29 32  0  0  0  0  0  0  0  0999 V2000
   25.3300   26.2600   34.7600 N   0  0  0  0  0  0  0  0  0  0  0  0
   26.1200   25.9200   33.6900 C   0  0  0  0  0  0  0  0  0  0  0  0
   25.6300   25.1100   32.9400 O   0  0  0  0  0  0  0  0  0  0  0  0
   27.5200   26.3800   33.4600 C   0  0  0  0  0  0  0  0  0  0  0  0
   28.1600   26.6300   34.6100 N   0  0  0  0  0  0  0  0  0  0  0  0
   29.4800   26.8500   34.5700 N   0  0  0  0  0  0  0  0  0  0  0  0
   30.1900   26.7800   33.4400 C   0  0  0  0  0  0  0  0  0  0  0  0
   31.5600   27.0500   33.5000 C   0  0  0  0  0  0  0  0  0  0  0  0
   32.2700   27.2400   32.3100 C   0  0  0  0  0  0  0  0  0  0  0  0
   31.6100   27.2500   31.0800 C   0  0  0  0  0  0  0  0  0  0  0  0
   30.2700   26.8700   31.0600 C   0  0  0  0  0  0  0  0  0  0  0  0
   29.5100   26.6900   32.2300 C   0  0  0  0  0  0  0  0  0  0  0  0
   28.1400   26.4100   32.2000 C   0  0  0  0  0  0  0  0  0  0  0  0
   27.4300   26.1300   31.0500 N   0  0  0  0  0  0  0  0  0  0  0  0
   27.6107   24.8000   30.4420 C   0  0  0  0  0  0  0  0  0  0  0  0
   26.7660   24.5666   29.1866 C   0  0  0  0  0  0  0  0  0  0  0  0
   27.1990   25.4291   28.0794 N   0  0  0  0  0  0  0  0  0  0  0  0
   26.7732   26.8061   28.0408 C   0  0  0  0  0  0  0  0  0  0  0  0
   26.3339   27.2901   26.9629 O   0  0  0  0  0  0  0  0  0  0  0  0
   26.9434   27.7252   29.2169 C   0  0  0  0  0  0  0  0  0  0  0  0
   26.4738   27.1281   30.5431 C   0  0  0  0  0  0  0  0  0  0  0  0
   27.8038   24.8265   26.8791 C   0  0  0  0  0  0  0  0  0  0  0  0
   29.0604   25.5697   26.4731 C   0  0  0  0  0  0  0  0  0  0  0  0
   29.2088   26.1994   25.2079 C   0  0  0  0  0  0  0  0  0  0  0  0
   28.1272   26.1540   24.1599 C   0  0  0  0  0  0  0  0  0  0  0  0
   30.4174   26.8535   24.9025 C   0  0  0  0  0  0  0  0  0  0  0  0
   31.4660   26.8787   25.8226 C   0  0  0  0  0  0  0  0  0  0  0  0
   31.3252   26.2507   27.0585 C   0  0  0  0  0  0  0  0  0  0  0  0
   30.1341   25.5981   27.3807 C   0  0  0  0  0  0  0  0  0  0  0  0
  1  2  1  0
  2  3  2  0
  2  4  1  0
  4  5  2  0
  5  6  1  0
  6  7  2  0
  7  8  1  0
  8  9  2  0
  9 10  1  0
 10 11  2  0
 11 12  1  0
 12 13  2  0
 13 14  1  0
 14 15  1  0
 15 16  1  0
 16 17  1  0
 17 18  1  0
 18 19  2  0
 18 20  1  0
 20 21  1  0
 17 22  1  0
 22 23  1  0
 23 24  2  0
 24 25  1  0
 24 26  1  0
 26 27  2  0
 27 28  1  0
 28 29  2  0
 13  4  1  0
 21 14  1  0
 29 23  1  0
 12  7  1  0
M  END
>  <AAScore>  (1) 
4.138807902766319

>  <RootName>  (1) 
./4ZLY/04_DeltaGEst/trajectory_03/rank_01/lead_0182

$$$$
