confid_8
     RDKit          3D

 27 30  0  0  0  0  0  0  0  0999 V2000
   24.2000   26.2400   35.6900 N   0  0  0  0  0  0  0  0  0  0  0  0
   24.8500   26.2800   34.4800 C   0  0  0  0  0  0  0  0  0  0  0  0
   24.3100   25.7400   33.5400 O   0  0  0  0  0  0  0  0  0  0  0  0
   26.1800   26.9700   34.4700 C   0  0  0  0  0  0  0  0  0  0  0  0
   26.6500   27.6000   35.5500 N   0  0  0  0  0  0  0  0  0  0  0  0
   27.7900   28.2700   35.6200 N   0  0  0  0  0  0  0  0  0  0  0  0
   28.5400   28.3000   34.5100 C   0  0  0  0  0  0  0  0  0  0  0  0
   29.7700   28.9400   34.5600 C   0  0  0  0  0  0  0  0  0  0  0  0
   30.7000   28.8900   33.5000 C   0  0  0  0  0  0  0  0  0  0  0  0
   30.3700   28.1400   32.3700 C   0  0  0  0  0  0  0  0  0  0  0  0
   29.1200   27.5200   32.2800 C   0  0  0  0  0  0  0  0  0  0  0  0
   28.2100   27.6100   33.3300 C   0  0  0  0  0  0  0  0  0  0  0  0
   26.9700   26.9700   33.3100 C   0  0  0  0  0  0  0  0  0  0  0  0
   26.5300   26.2400   32.2200 N   0  0  0  0  0  0  0  0  0  0  0  0
   22.7963   25.9761   35.8478 C   0  0  0  0  0  0  0  0  0  0  0  0
   21.9241   25.8556   34.8198 N   0  0  0  0  0  0  0  0  0  0  0  0
   20.7618   25.6433   35.4681 C   0  0  0  0  0  0  0  0  0  0  0  0
   19.4502   25.4324   34.7782 C   0  0  0  0  0  0  0  0  0  0  0  0
   18.3990   26.4413   35.2531 C   0  0  0  0  0  0  0  0  0  0  0  0
   17.8565   26.0632   36.5817 N   0  0  0  0  0  0  0  0  0  0  0  0
   18.7746   26.4428   37.6849 C   0  0  0  0  0  0  0  0  0  0  0  0
   19.9131   25.4278   37.8245 C   0  0  0  0  0  0  0  0  0  0  0  0
   20.9315   25.6428   36.8016 N   0  0  0  0  0  0  0  0  0  0  0  0
   22.2100   25.8520   37.0551 N   0  0  0  0  0  0  0  0  0  0  0  0
   16.4614   26.5536   36.7681 C   0  0  0  0  0  0  0  0  0  0  0  0
   15.7324   25.7465   37.8521 C   0  0  0  0  0  0  0  0  0  0  0  0
   16.3752   28.0661   37.0461 C   0  0  0  0  0  0  0  0  0  0  0  0
  1  2  1  0
  2  3  2  0
  2  4  1  0
  4  5  2  0
  5  6  1  0
  6  7  2  0
  7  8  1  0
  8  9  2  0
  9 10  1  0
 10 11  2  0
 11 12  1  0
 12 13  2  0
 13 14  1  0
  1 15  1  0
 15 16  1  0
 16 17  2  0
 17 18  1  0
 18 19  1  0
 19 20  1  0
 20 21  1  0
 21 22  1  0
 22 23  1  0
 23 24  1  0
 20 25  1  0
 25 26  1  0
 25 27  1  0
 13  4  1  0
 24 15  2  0
 12  7  1  0
 23 17  1  0
M  END
>  <AAScore>  (1) 
813.8606457197526

>  <RootName>  (1) 
./4ZLY/04_DeltaGEst/trajectory_04/rank_00/lead_0206

$$$$
