confid_10
     RDKit          3D

 26 29  0  0  0  0  0  0  0  0999 V2000
   24.2000   26.2400   35.6900 N   0  0  0  0  0  0  0  0  0  0  0  0
   24.8500   26.2800   34.4800 C   0  0  0  0  0  0  0  0  0  0  0  0
   24.3100   25.7400   33.5400 O   0  0  0  0  0  0  0  0  0  0  0  0
   26.1800   26.9700   34.4700 C   0  0  0  0  0  0  0  0  0  0  0  0
   26.6500   27.6000   35.5500 N   0  0  0  0  0  0  0  0  0  0  0  0
   27.7900   28.2700   35.6200 N   0  0  0  0  0  0  0  0  0  0  0  0
   28.5400   28.3000   34.5100 C   0  0  0  0  0  0  0  0  0  0  0  0
   29.7700   28.9400   34.5600 C   0  0  0  0  0  0  0  0  0  0  0  0
   30.7000   28.8900   33.5000 C   0  0  0  0  0  0  0  0  0  0  0  0
   30.3700   28.1400   32.3700 C   0  0  0  0  0  0  0  0  0  0  0  0
   29.1200   27.5200   32.2800 C   0  0  0  0  0  0  0  0  0  0  0  0
   28.2100   27.6100   33.3300 C   0  0  0  0  0  0  0  0  0  0  0  0
   26.9700   26.9700   33.3100 C   0  0  0  0  0  0  0  0  0  0  0  0
   26.5300   26.2400   32.2200 N   0  0  0  0  0  0  0  0  0  0  0  0
   30.1350   29.6779   35.7364 N   0  0  0  0  0  0  0  0  0  0  0  0
   31.2550   29.3195   36.5859 C   0  0  0  0  0  0  0  0  0  0  0  0
   31.4099   30.4840   37.5566 C   0  0  0  0  0  0  0  0  0  0  0  0
   30.0558   31.2377   37.5330 C   0  0  2  0  0  0  0  0  0  0  0  0
   30.2444   32.7609   37.7247 C   0  0  0  0  0  0  0  0  0  0  0  0
   30.8062   33.1187   39.1286 C   0  0  2  0  0  0  0  0  0  0  0  0
   32.1830   33.3804   39.0232 O   0  0  0  0  0  0  0  0  0  0  0  0
   30.6051   32.0229   40.1082 N   0  0  0  0  0  0  0  0  0  0  0  0
   30.8199   32.5104   41.4807 C   0  0  0  0  0  0  0  0  0  0  0  0
   29.2596   31.4334   39.9851 C   0  0  0  0  0  0  0  0  0  0  0  0
   29.1048   30.6923   38.6425 C   0  0  0  0  0  0  0  0  0  0  0  0
   29.4930   30.9187   36.1321 C   0  0  0  0  0  0  0  0  0  0  0  0
  1  2  1  0
  2  3  2  0
  2  4  1  0
  4  5  2  0
  5  6  1  0
  6  7  2  0
  7  8  1  0
  8  9  2  0
  9 10  1  0
 10 11  2  0
 11 12  1  0
 12 13  2  0
 13 14  1  0
  8 15  1  0
 15 16  1  0
 16 17  1  0
 18 17  1  6
 18 19  1  0
 19 20  1  0
 20 21  1  6
 20 22  1  0
 22 23  1  0
 22 24  1  0
 24 25  1  0
 18 26  1  0
 13  4  1  0
 26 15  1  0
 12  7  1  0
 25 18  1  0
M  END
>  <AAScore>  (1) 
-8.677679768457208

>  <RootName>  (1) 
./4ZLY/04_DeltaGEst/trajectory_04/rank_01/lead_0000

$$$$
