confid_10
     RDKit          3D

 28 31  0  0  0  0  0  0  0  0999 V2000
   24.5500   26.3900   36.2500 N   0  0  0  0  0  0  0  0  0  0  0  0
   25.6000   26.1300   35.4000 C   0  0  0  0  0  0  0  0  0  0  0  0
   25.4300   25.4300   34.4200 O   0  0  0  0  0  0  0  0  0  0  0  0
   26.9800   26.6300   35.7100 C   0  0  0  0  0  0  0  0  0  0  0  0
   27.3200   26.8200   36.9800 N   0  0  0  0  0  0  0  0  0  0  0  0
   28.4700   27.4000   37.3100 N   0  0  0  0  0  0  0  0  0  0  0  0
   29.4000   27.6300   36.3700 C   0  0  0  0  0  0  0  0  0  0  0  0
   30.6600   28.0500   36.8000 C   0  0  0  0  0  0  0  0  0  0  0  0
   31.5700   28.3600   35.7800 C   0  0  0  0  0  0  0  0  0  0  0  0
   31.3700   28.1000   34.4300 C   0  0  0  0  0  0  0  0  0  0  0  0
   30.1200   27.5900   34.0500 C   0  0  0  0  0  0  0  0  0  0  0  0
   29.1500   27.3400   35.0300 C   0  0  0  0  0  0  0  0  0  0  0  0
   27.8800   26.8900   34.6600 C   0  0  0  0  0  0  0  0  0  0  0  0
   27.4800   26.6100   33.3700 N   0  0  0  0  0  0  0  0  0  0  0  0
   30.9654   28.3113   38.1791 N   0  0  0  0  0  0  0  0  0  0  0  0
   32.0364   27.5451   38.8302 C   0  0  0  0  0  0  0  0  0  0  0  0
   32.2296   27.9873   40.2835 C   0  0  0  0  0  0  0  0  0  0  0  0
   30.9196   28.1309   40.9361 N   0  0  0  0  0  0  0  0  0  0  0  0
   30.6618   27.5673   42.2362 C   0  0  0  0  0  0  0  0  0  0  0  0
   31.1104   26.2782   42.5727 C   0  0  0  0  0  0  0  0  0  0  0  0
   30.8229   25.7578   43.8366 C   0  0  0  0  0  0  0  0  0  0  0  0
   31.2500   24.5149   44.1710 F   0  0  0  0  0  0  0  0  0  0  0  0
   30.0857   26.5151   44.7487 C   0  0  0  0  0  0  0  0  0  0  0  0
   29.7969   26.0210   45.9780 F   0  0  0  0  0  0  0  0  0  0  0  0
   29.6386   27.7842   44.3776 C   0  0  0  0  0  0  0  0  0  0  0  0
   29.9293   28.2741   43.1431 N   0  0  0  0  0  0  0  0  0  0  0  0
   29.8696   28.9348   40.2904 C   0  0  0  0  0  0  0  0  0  0  0  0
   30.2918   29.4036   38.8923 C   0  0  0  0  0  0  0  0  0  0  0  0
  1  2  1  0
  2  3  2  0
  2  4  1  0
  4  5  2  0
  5  6  1  0
  6  7  2  0
  7  8  1  0
  8  9  2  0
  9 10  1  0
 10 11  2  0
 11 12  1  0
 12 13  2  0
 13 14  1  0
  8 15  1  0
 15 16  1  0
 16 17  1  0
 17 18  1  0
 18 19  1  0
 19 20  2  0
 20 21  1  0
 21 22  1  0
 21 23  2  0
 23 24  1  0
 23 25  1  0
 25 26  2  0
 18 27  1  0
 27 28  1  0
 13  4  1  0
 28 15  1  0
 12  7  1  0
 26 19  1  0
M  END
>  <AAScore>  (1) 
603.0202204569401

>  <RootName>  (1) 
./4ZLY/04_DeltaGEst/trajectory_01/rank_01/lead_0076

$$$$
