confid_11
     RDKit          3D

 29 32  0  0  0  0  0  0  0  0999 V2000
   24.6900   26.1200   35.5300 N   0  0  0  0  0  0  0  0  0  0  0  0
   25.6600   25.6700   34.6600 C   0  0  0  0  0  0  0  0  0  0  0  0
   25.2400   25.0100   33.7200 O   0  0  0  0  0  0  0  0  0  0  0  0
   27.0300   26.2200   34.8800 C   0  0  0  0  0  0  0  0  0  0  0  0
   27.3500   26.7300   36.0700 N   0  0  0  0  0  0  0  0  0  0  0  0
   28.5700   27.1800   36.3300 N   0  0  0  0  0  0  0  0  0  0  0  0
   29.5300   27.1100   35.3900 C   0  0  0  0  0  0  0  0  0  0  0  0
   30.8300   27.5700   35.6500 C   0  0  0  0  0  0  0  0  0  0  0  0
   31.8500   27.5400   34.6900 C   0  0  0  0  0  0  0  0  0  0  0  0
   31.5100   27.1200   33.4000 C   0  0  0  0  0  0  0  0  0  0  0  0
   30.2200   26.6300   33.1100 C   0  0  0  0  0  0  0  0  0  0  0  0
   29.2400   26.6600   34.1000 C   0  0  0  0  0  0  0  0  0  0  0  0
   27.9300   26.2600   33.8100 C   0  0  0  0  0  0  0  0  0  0  0  0
   27.5200   25.7100   32.6100 N   0  0  0  0  0  0  0  0  0  0  0  0
   31.1915   28.0754   36.9972 C   0  0  0  0  0  0  0  0  0  0  0  0
   30.8247   27.5229   38.2172 C   0  0  0  0  0  0  0  0  0  0  0  0
   31.3295   28.1887   39.3537 C   0  0  0  0  0  0  0  0  0  0  0  0
   30.9613   27.5781   40.7466 C   0  0  0  0  0  0  0  0  0  0  0  0
   29.5851   28.0449   41.4157 C   0  0  0  0  0  0  0  0  0  0  0  0
   29.7092   28.9537   42.6284 N   0  0  0  0  0  0  0  0  0  0  0  0
   30.0465   30.4019   42.3669 C   0  0  0  0  0  0  0  0  0  0  0  0
   30.9540   30.4022   41.1836 C   0  0  0  0  0  0  0  0  0  0  0  0
   31.9586   31.3244   40.7141 N   0  0  0  0  0  0  0  0  0  0  0  0
   31.4030   32.5653   40.1280 C   0  0  0  0  0  0  0  0  0  0  0  0
   30.7592   32.4113   38.7418 C   0  0  0  0  0  0  0  0  0  0  0  0
   32.8343   30.5045   39.7940 C   0  0  0  0  0  0  0  0  0  0  0  0
   32.1307   29.3561   38.9828 C   0  0  0  0  0  0  0  0  0  0  0  0
   32.1586   29.4066   37.3005 S   0  0  0  0  0  0  0  0  0  0  0  0
   28.4988   28.8740   43.4584 C   0  0  0  0  0  0  0  0  0  0  0  0
  1  2  1  0
  2  3  2  0
  2  4  1  0
  4  5  2  0
  5  6  1  0
  6  7  2  0
  7  8  1  0
  8  9  2  0
  9 10  1  0
 10 11  2  0
 11 12  1  0
 12 13  2  0
 13 14  1  0
  8 15  1  0
 15 16  2  0
 16 17  1  0
 17 18  1  0
 18 19  1  0
 19 20  1  0
 20 21  1  0
 21 22  1  0
 22 23  1  0
 23 24  1  0
 24 25  1  0
 23 26  1  0
 26 27  1  0
 27 28  1  0
 20 29  1  0
 13  4  1  0
 28 15  1  0
 12  7  1  0
 27 17  2  0
M  END
>  <AAScore>  (1) 
-3.597035965574095

>  <RootName>  (1) 
./4ZLY/04_DeltaGEst/trajectory_02/rank_01/lead_0496

$$$$
