confid_4
     RDKit          3D

 28 31  0  0  0  0  0  0  0  0999 V2000
   24.5500   26.3900   36.2500 N   0  0  0  0  0  0  0  0  0  0  0  0
   25.6000   26.1300   35.4000 C   0  0  0  0  0  0  0  0  0  0  0  0
   25.4300   25.4300   34.4200 O   0  0  0  0  0  0  0  0  0  0  0  0
   26.9800   26.6300   35.7100 C   0  0  0  0  0  0  0  0  0  0  0  0
   27.3200   26.8200   36.9800 N   0  0  0  0  0  0  0  0  0  0  0  0
   28.4700   27.4000   37.3100 N   0  0  0  0  0  0  0  0  0  0  0  0
   29.4000   27.6300   36.3700 C   0  0  0  0  0  0  0  0  0  0  0  0
   30.6600   28.0500   36.8000 C   0  0  0  0  0  0  0  0  0  0  0  0
   31.5700   28.3600   35.7800 C   0  0  0  0  0  0  0  0  0  0  0  0
   31.3700   28.1000   34.4300 C   0  0  0  0  0  0  0  0  0  0  0  0
   30.1200   27.5900   34.0500 C   0  0  0  0  0  0  0  0  0  0  0  0
   29.1500   27.3400   35.0300 C   0  0  0  0  0  0  0  0  0  0  0  0
   27.8800   26.8900   34.6600 C   0  0  0  0  0  0  0  0  0  0  0  0
   27.4800   26.6100   33.3700 N   0  0  0  0  0  0  0  0  0  0  0  0
   23.1625   26.2259   35.9099 C   0  0  0  0  0  0  0  0  0  0  0  0
   22.2815   25.9060   36.8882 N   0  0  0  0  0  0  0  0  0  0  0  0
   20.9554   25.7617   36.6484 C   0  0  0  0  0  0  0  0  0  0  0  0
   20.4244   25.9564   35.3587 C   0  0  0  0  0  0  0  0  0  0  0  0
   18.9300   25.7234   35.1855 C   0  0  0  0  0  0  0  0  0  0  0  0
   18.1657   26.8650   34.6397 N   0  0  0  0  0  0  0  0  0  0  0  0
   18.6427   28.2221   34.9441 C   0  0  0  0  0  0  0  0  0  0  0  0
   17.5672   26.6668   33.3070 C   0  0  0  0  0  0  0  0  0  0  0  0
   18.5401   26.8746   32.1387 C   0  0  0  0  0  0  0  0  0  0  0  0
   19.7776   25.9675   32.1897 C   0  0  0  0  0  0  0  0  0  0  0  0
   20.9070   26.6360   32.9150 C   0  0  0  0  0  0  0  0  0  0  0  0
   21.5475   27.5257   32.2889 O   0  0  0  0  0  0  0  0  0  0  0  0
   21.3202   26.3112   34.3087 C   0  0  0  0  0  0  0  0  0  0  0  0
   22.6887   26.4540   34.6112 C   0  0  0  0  0  0  0  0  0  0  0  0
  1  2  1  0
  2  3  2  0
  2  4  1  0
  4  5  2  0
  5  6  1  0
  6  7  2  0
  7  8  1  0
  8  9  2  0
  9 10  1  0
 10 11  2  0
 11 12  1  0
 12 13  2  0
 13 14  1  0
  1 15  1  0
 15 16  2  0
 16 17  1  0
 17 18  2  0
 18 19  1  0
 19 20  1  0
 20 21  1  0
 20 22  1  0
 22 23  1  0
 23 24  1  0
 24 25  1  0
 25 26  2  0
 25 27  1  0
 27 28  2  0
 13  4  1  0
 28 15  1  0
 12  7  1  0
 27 18  1  0
M  END
>  <AAScore>  (1) 
1982.220518901374

>  <RootName>  (1) 
./4ZLY/04_DeltaGEst/trajectory_01/rank_00/lead_0121

$$$$
