confid_17
     RDKit          3D

 29 32  0  0  0  0  0  0  0  0999 V2000
   24.5700   26.8800   35.5900 N   0  0  0  0  0  0  0  0  0  0  0  0
   25.5000   26.4000   34.6900 C   0  0  0  0  0  0  0  0  0  0  0  0
   25.1700   25.5200   33.9100 O   0  0  0  0  0  0  0  0  0  0  0  0
   26.8400   27.0200   34.7400 C   0  0  0  0  0  0  0  0  0  0  0  0
   27.3800   27.2800   35.9400 N   0  0  0  0  0  0  0  0  0  0  0  0
   28.6200   27.7400   36.0300 N   0  0  0  0  0  0  0  0  0  0  0  0
   29.3800   28.0000   34.9600 C   0  0  0  0  0  0  0  0  0  0  0  0
   30.6700   28.5000   35.1300 C   0  0  0  0  0  0  0  0  0  0  0  0
   31.5400   28.6100   34.0300 C   0  0  0  0  0  0  0  0  0  0  0  0
   31.0900   28.2200   32.7700 C   0  0  0  0  0  0  0  0  0  0  0  0
   29.8000   27.7000   32.6000 C   0  0  0  0  0  0  0  0  0  0  0  0
   28.9600   27.5500   33.7100 C   0  0  0  0  0  0  0  0  0  0  0  0
   27.6600   27.0300   33.5900 C   0  0  0  0  0  0  0  0  0  0  0  0
   27.1600   26.7400   32.3400 N   0  0  0  0  0  0  0  0  0  0  0  0
   33.1771   29.2313   34.2483 S   0  0  0  0  0  6  0  0  0  0  0  0
   33.8034   29.5335   32.9182 O   0  0  0  0  0  0  0  0  0  0  0  0
   33.9837   28.1470   34.9057 O   0  0  0  0  0  0  0  0  0  0  0  0
   33.2473   30.6832   35.3076 C   0  0  0  0  0  0  0  0  0  0  0  0
   32.7214   32.0337   34.7481 C   0  0  2  0  0  0  0  0  0  0  0  0
   31.2048   32.0681   34.4247 C   0  0  0  0  0  0  0  0  0  0  0  0
   30.8846   31.8862   32.9391 C   0  0  0  0  0  0  0  0  0  0  0  0
   31.6685   32.9081   32.0921 C   0  0  2  0  0  0  0  0  0  0  0  0
   31.2833   32.9506   30.6571 N   0  0  0  0  0  0  0  0  0  0  0  0
   30.0198   33.6503   30.3892 C   0  0  0  0  0  0  0  0  0  0  0  0
   29.3852   32.9942   29.1645 C   0  0  0  0  0  0  0  0  0  0  0  0
   30.3746   31.9353   28.7118 C   0  0  0  0  0  0  0  0  0  0  0  0
   31.2278   31.6742   29.9354 C   0  0  0  0  0  0  0  0  0  0  0  0
   33.1669   32.6163   32.2272 C   0  0  0  0  0  0  0  0  0  0  0  0
   33.6402   32.7131   33.6888 C   0  0  0  0  0  0  0  0  0  0  0  0
  1  2  1  0
  2  3  2  0
  2  4  1  0
  4  5  2  0
  5  6  1  0
  6  7  2  0
  7  8  1  0
  8  9  2  0
  9 10  1  0
 10 11  2  0
 11 12  1  0
 12 13  2  0
 13 14  1  0
  9 15  1  0
 15 16  2  0
 15 17  2  0
 15 18  1  0
 19 18  1  6
 19 20  1  0
 20 21  1  0
 21 22  1  0
 22 23  1  6
 23 24  1  0
 24 25  1  0
 25 26  1  0
 26 27  1  0
 22 28  1  0
 28 29  1  0
 13  4  1  0
 29 19  1  0
 12  7  1  0
 27 23  1  0
M  END
>  <AAScore>  (1) 
2.0392486607398923

>  <RootName>  (1) 
./4ZLY/04_DeltaGEst/trajectory_05/rank_01/lead_0450

$$$$
