confid_16
     RDKit          3D

 27 30  0  0  0  0  0  0  0  0999 V2000
   24.2000   26.2400   35.6900 N   0  0  0  0  0  0  0  0  0  0  0  0
   24.8500   26.2800   34.4800 C   0  0  0  0  0  0  0  0  0  0  0  0
   24.3100   25.7400   33.5400 O   0  0  0  0  0  0  0  0  0  0  0  0
   26.1800   26.9700   34.4700 C   0  0  0  0  0  0  0  0  0  0  0  0
   26.6500   27.6000   35.5500 N   0  0  0  0  0  0  0  0  0  0  0  0
   27.7900   28.2700   35.6200 N   0  0  0  0  0  0  0  0  0  0  0  0
   28.5400   28.3000   34.5100 C   0  0  0  0  0  0  0  0  0  0  0  0
   29.7700   28.9400   34.5600 C   0  0  0  0  0  0  0  0  0  0  0  0
   30.7000   28.8900   33.5000 C   0  0  0  0  0  0  0  0  0  0  0  0
   30.3700   28.1400   32.3700 C   0  0  0  0  0  0  0  0  0  0  0  0
   29.1200   27.5200   32.2800 C   0  0  0  0  0  0  0  0  0  0  0  0
   28.2100   27.6100   33.3300 C   0  0  0  0  0  0  0  0  0  0  0  0
   26.9700   26.9700   33.3100 C   0  0  0  0  0  0  0  0  0  0  0  0
   26.5300   26.2400   32.2200 N   0  0  0  0  0  0  0  0  0  0  0  0
   22.7809   26.0672   35.8489 C   0  0  0  0  0  0  0  0  0  0  0  0
   21.9417   26.1215   34.7764 N   0  0  0  0  0  0  0  0  0  0  0  0
   20.5999   25.9719   34.9236 C   0  0  0  0  0  0  0  0  0  0  0  0
   20.0612   25.7627   36.1912 C   0  0  0  0  0  0  0  0  0  0  0  0
   18.6811   25.6144   36.3658 O   0  0  0  0  0  0  0  0  0  0  0  0
   18.1146   25.2315   37.6215 C   0  0  1  0  0  0  0  0  0  0  0  0
   18.9067   25.8719   38.7819 C   0  0  0  0  0  0  0  0  0  0  0  0
   18.7881   27.2522   38.7327 F   0  0  0  0  0  0  0  0  0  0  0  0
   18.4116   25.4246   39.9955 F   0  0  0  0  0  0  0  0  0  0  0  0
   20.3923   25.4885   38.6742 C   0  0  0  0  0  0  0  0  0  0  0  0
   20.9294   25.7342   37.2908 C   0  0  0  0  0  0  0  0  0  0  0  0
   22.2667   25.8769   37.0944 N   0  0  0  0  0  0  0  0  0  0  0  0
   16.6384   25.6259   37.6512 C   0  0  0  0  0  0  0  0  0  0  0  0
  1  2  1  0
  2  3  2  0
  2  4  1  0
  4  5  2  0
  5  6  1  0
  6  7  2  0
  7  8  1  0
  8  9  2  0
  9 10  1  0
 10 11  2  0
 11 12  1  0
 12 13  2  0
 13 14  1  0
  1 15  1  0
 15 16  2  0
 16 17  1  0
 17 18  2  0
 18 19  1  0
 19 20  1  0
 20 21  1  0
 21 22  1  0
 21 23  1  0
 21 24  1  0
 24 25  1  0
 25 26  2  0
 20 27  1  6
 13  4  1  0
 26 15  1  0
 12  7  1  0
 25 18  1  0
M  END
>  <AAScore>  (1) 
420.4863283079967

>  <RootName>  (1) 
./4ZLY/04_DeltaGEst/trajectory_04/rank_00/lead_0465

$$$$
