confid_4
     RDKit          3D

 29 32  0  0  0  0  0  0  0  0999 V2000
   24.2000   26.2400   35.6900 N   0  0  0  0  0  0  0  0  0  0  0  0
   24.8500   26.2800   34.4800 C   0  0  0  0  0  0  0  0  0  0  0  0
   24.3100   25.7400   33.5400 O   0  0  0  0  0  0  0  0  0  0  0  0
   26.1800   26.9700   34.4700 C   0  0  0  0  0  0  0  0  0  0  0  0
   26.6500   27.6000   35.5500 N   0  0  0  0  0  0  0  0  0  0  0  0
   27.7900   28.2700   35.6200 N   0  0  0  0  0  0  0  0  0  0  0  0
   28.5400   28.3000   34.5100 C   0  0  0  0  0  0  0  0  0  0  0  0
   29.7700   28.9400   34.5600 C   0  0  0  0  0  0  0  0  0  0  0  0
   30.7000   28.8900   33.5000 C   0  0  0  0  0  0  0  0  0  0  0  0
   30.3700   28.1400   32.3700 C   0  0  0  0  0  0  0  0  0  0  0  0
   29.1200   27.5200   32.2800 C   0  0  0  0  0  0  0  0  0  0  0  0
   28.2100   27.6100   33.3300 C   0  0  0  0  0  0  0  0  0  0  0  0
   26.9700   26.9700   33.3100 C   0  0  0  0  0  0  0  0  0  0  0  0
   26.5300   26.2400   32.2200 N   0  0  0  0  0  0  0  0  0  0  0  0
   30.1226   29.7116   35.7208 N   0  0  0  0  0  0  0  0  0  0  0  0
   29.4526   30.9992   35.9535 C   0  0  0  0  0  0  0  0  0  0  0  0
   30.0457   31.7319   37.1620 C   0  0  0  0  0  0  0  0  0  0  0  0
   31.5141   31.6961   37.1067 N   0  0  0  0  0  0  0  0  0  0  0  0
   32.2849   32.8835   37.3674 C   0  0  0  0  0  0  0  0  0  0  0  0
   33.3599   33.3183   36.6161 C   0  0  0  0  0  0  0  0  0  0  0  0
   33.7723   34.5067   37.1921 C   0  0  0  0  0  0  0  0  0  0  0  0
   34.8919   35.3574   36.6589 C   0  0  0  0  0  0  0  0  0  0  0  0
   34.3656   36.3690   35.6459 C   0  0  0  0  0  0  0  0  0  0  0  0
   32.9782   34.8212   38.2461 N   0  0  0  0  0  0  0  0  0  0  0  0
   33.1115   35.9836   39.1275 C   0  0  0  0  0  0  0  0  0  0  0  0
   32.0904   33.8077   38.3854 C   0  0  0  0  0  0  0  0  0  0  0  0
   31.0739   33.7108   39.4866 C   0  0  0  0  0  0  0  0  0  0  0  0
   32.2162   30.4497   36.7611 C   0  0  0  0  0  0  0  0  0  0  0  0
   31.2365   29.2873   36.5757 C   0  0  0  0  0  0  0  0  0  0  0  0
  1  2  1  0
  2  3  2  0
  2  4  1  0
  4  5  2  0
  5  6  1  0
  6  7  2  0
  7  8  1  0
  8  9  2  0
  9 10  1  0
 10 11  2  0
 11 12  1  0
 12 13  2  0
 13 14  1  0
  8 15  1  0
 15 16  1  0
 16 17  1  0
 17 18  1  0
 18 19  1  0
 19 20  1  0
 20 21  2  0
 21 22  1  0
 22 23  1  0
 21 24  1  0
 24 25  1  0
 24 26  1  0
 26 27  1  0
 18 28  1  0
 28 29  1  0
 13  4  1  0
 29 15  1  0
 12  7  1  0
 26 19  2  0
M  END
>  <AAScore>  (1) 
-8.33637085569811

>  <RootName>  (1) 
./4ZLY/04_DeltaGEst/trajectory_04/rank_01/lead_0206

$$$$
