confid_3
     RDKit          3D

 27 30  0  0  0  0  0  0  0  0999 V2000
   24.5500   26.3900   36.2500 N   0  0  0  0  0  0  0  0  0  0  0  0
   25.6000   26.1300   35.4000 C   0  0  0  0  0  0  0  0  0  0  0  0
   25.4300   25.4300   34.4200 O   0  0  0  0  0  0  0  0  0  0  0  0
   26.9800   26.6300   35.7100 C   0  0  0  0  0  0  0  0  0  0  0  0
   27.3200   26.8200   36.9800 N   0  0  0  0  0  0  0  0  0  0  0  0
   28.4700   27.4000   37.3100 N   0  0  0  0  0  0  0  0  0  0  0  0
   29.4000   27.6300   36.3700 C   0  0  0  0  0  0  0  0  0  0  0  0
   30.6600   28.0500   36.8000 C   0  0  0  0  0  0  0  0  0  0  0  0
   31.5700   28.3600   35.7800 C   0  0  0  0  0  0  0  0  0  0  0  0
   31.3700   28.1000   34.4300 C   0  0  0  0  0  0  0  0  0  0  0  0
   30.1200   27.5900   34.0500 C   0  0  0  0  0  0  0  0  0  0  0  0
   29.1500   27.3400   35.0300 C   0  0  0  0  0  0  0  0  0  0  0  0
   27.8800   26.8900   34.6600 C   0  0  0  0  0  0  0  0  0  0  0  0
   27.4800   26.6100   33.3700 N   0  0  0  0  0  0  0  0  0  0  0  0
   23.1990   26.0446   35.9291 C   0  0  0  0  0  0  0  0  0  0  0  0
   22.5039   26.6413   34.9374 N   0  0  0  0  0  0  0  0  0  0  0  0
   21.2913   26.0533   34.9918 C   0  0  0  0  0  0  0  0  0  0  0  0
   21.2683   25.1350   36.0205 C   0  0  0  0  0  0  0  0  0  0  0  0
   20.1233   24.2121   36.3343 C   0  0  0  0  0  0  0  0  0  0  0  0
   20.3084   22.9193   35.6281 N   0  0  0  0  0  0  0  0  0  0  0  0
   20.8543   21.8457   36.4995 C   0  0  0  0  0  0  0  0  0  0  0  0
   22.1991   21.3364   35.9649 C   0  0  0  0  0  0  0  0  0  0  0  0
   23.2578   22.4277   35.7247 C   0  0  0  0  0  0  0  0  0  0  0  0
   23.8309   23.0690   37.0101 C   0  0  0  0  0  0  0  0  0  0  0  0
   22.9889   24.2040   37.6321 C   0  0  0  0  0  0  0  0  0  0  0  0
   22.4798   25.1343   36.6182 N   0  0  0  0  0  0  0  0  0  0  0  0
   19.0642   22.4883   34.9734 C   0  0  0  0  0  0  0  0  0  0  0  0
  1  2  1  0
  2  3  2  0
  2  4  1  0
  4  5  2  0
  5  6  1  0
  6  7  2  0
  7  8  1  0
  8  9  2  0
  9 10  1  0
 10 11  2  0
 11 12  1  0
 12 13  2  0
 13 14  1  0
  1 15  1  0
 15 16  2  0
 16 17  1  0
 17 18  2  0
 18 19  1  0
 19 20  1  0
 20 21  1  0
 21 22  1  0
 22 23  1  0
 23 24  1  0
 24 25  1  0
 25 26  1  0
 20 27  1  0
 13  4  1  0
 26 15  1  0
 12  7  1  0
 26 18  1  0
M  END
>  <AAScore>  (1) 
5816.430445023878

>  <RootName>  (1) 
./4ZLY/04_DeltaGEst/trajectory_01/rank_00/lead_0379

$$$$
