confid_14
     RDKit          3D

 27 30  0  0  0  0  0  0  0  0999 V2000
   24.6900   26.1200   35.5300 N   0  0  0  0  0  0  0  0  0  0  0  0
   25.6600   25.6700   34.6600 C   0  0  0  0  0  0  0  0  0  0  0  0
   25.2400   25.0100   33.7200 O   0  0  0  0  0  0  0  0  0  0  0  0
   27.0300   26.2200   34.8800 C   0  0  0  0  0  0  0  0  0  0  0  0
   27.3500   26.7300   36.0700 N   0  0  0  0  0  0  0  0  0  0  0  0
   28.5700   27.1800   36.3300 N   0  0  0  0  0  0  0  0  0  0  0  0
   29.5300   27.1100   35.3900 C   0  0  0  0  0  0  0  0  0  0  0  0
   30.8300   27.5700   35.6500 C   0  0  0  0  0  0  0  0  0  0  0  0
   31.8500   27.5400   34.6900 C   0  0  0  0  0  0  0  0  0  0  0  0
   31.5100   27.1200   33.4000 C   0  0  0  0  0  0  0  0  0  0  0  0
   30.2200   26.6300   33.1100 C   0  0  0  0  0  0  0  0  0  0  0  0
   29.2400   26.6600   34.1000 C   0  0  0  0  0  0  0  0  0  0  0  0
   27.9300   26.2600   33.8100 C   0  0  0  0  0  0  0  0  0  0  0  0
   27.5200   25.7100   32.6100 N   0  0  0  0  0  0  0  0  0  0  0  0
   31.1907   28.0719   37.0012 C   0  0  0  0  0  0  0  0  0  0  0  0
   32.0593   29.1321   37.2704 C   0  0  0  0  0  0  0  0  0  0  0  0
   32.2524   29.3479   38.6406 C   0  0  0  0  0  0  0  0  0  0  0  0
   33.1904   30.3530   39.2298 C   0  0  0  0  0  0  0  0  0  0  0  0
   32.7547   30.7435   40.5870 N   0  0  0  0  0  0  0  0  0  0  0  0
   32.1524   29.7518   41.4606 C   0  0  0  0  0  0  0  0  0  0  0  0
   32.0192   29.9826   42.6928 O   0  0  0  0  0  0  0  0  0  0  0  0
   31.6898   28.4187   40.9303 C   0  0  0  0  0  0  0  0  0  0  0  0
   31.5641   28.4612   39.4444 C   0  0  0  0  0  0  0  0  0  0  0  0
   30.7098   27.3905   38.4740 S   0  0  0  0  0  0  0  0  0  0  0  0
   32.9278   32.1364   41.0518 C   0  0  0  0  0  0  0  0  0  0  0  0
   34.3813   32.5994   40.8926 C   0  0  0  0  0  0  0  0  0  0  0  0
   31.9582   33.0748   40.3253 C   0  0  0  0  0  0  0  0  0  0  0  0
  1  2  1  0
  2  3  2  0
  2  4  1  0
  4  5  2  0
  5  6  1  0
  6  7  2  0
  7  8  1  0
  8  9  2  0
  9 10  1  0
 10 11  2  0
 11 12  1  0
 12 13  2  0
 13 14  1  0
  8 15  1  0
 15 16  2  0
 16 17  1  0
 17 18  1  0
 18 19  1  0
 19 20  1  0
 20 21  2  0
 20 22  1  0
 22 23  1  0
 23 24  1  0
 19 25  1  0
 25 26  1  0
 25 27  1  0
 13  4  1  0
 24 15  1  0
 12  7  1  0
 23 17  2  0
M  END
>  <AAScore>  (1) 
10.844254364555557

>  <RootName>  (1) 
./4ZLY/04_DeltaGEst/trajectory_02/rank_01/lead_0415

$$$$
