confid_15
     RDKit          3D

 27 31  0  0  0  0  0  0  0  0999 V2000
   24.4800   26.1000   36.1300 N   0  0  0  0  0  0  0  0  0  0  0  0
   25.2500   26.2500   34.9900 C   0  0  0  0  0  0  0  0  0  0  0  0
   24.7400   25.7600   33.9900 O   0  0  0  0  0  0  0  0  0  0  0  0
   26.5900   26.8900   34.9600 C   0  0  0  0  0  0  0  0  0  0  0  0
   27.0600   27.2400   36.1600 N   0  0  0  0  0  0  0  0  0  0  0  0
   28.3000   27.7100   36.2400 N   0  0  0  0  0  0  0  0  0  0  0  0
   29.0500   27.9600   35.1500 C   0  0  0  0  0  0  0  0  0  0  0  0
   30.3400   28.4900   35.2600 C   0  0  0  0  0  0  0  0  0  0  0  0
   31.1100   28.8200   34.1400 C   0  0  0  0  0  0  0  0  0  0  0  0
   30.5200   28.6700   32.8800 C   0  0  0  0  0  0  0  0  0  0  0  0
   29.2900   28.0200   32.7700 C   0  0  0  0  0  0  0  0  0  0  0  0
   28.5200   27.7100   33.8900 C   0  0  0  0  0  0  0  0  0  0  0  0
   27.2700   27.0800   33.7600 C   0  0  0  0  0  0  0  0  0  0  0  0
   26.7500   26.8800   32.4900 N   0  0  0  0  0  0  0  0  0  0  0  0
   23.5132   25.0461   36.2344 C   0  0  0  0  0  0  0  0  0  0  0  0
   22.4149   25.3269   36.8986 N   0  0  0  0  0  0  0  0  0  0  0  0
   21.1728   24.6665   37.1791 C   0  0  0  0  0  0  0  0  0  0  0  0
   20.8488   23.5345   36.6049 C   0  0  0  0  0  0  0  0  0  0  0  0
   21.2410   22.2565   35.9248 C   0  0  2  0  0  0  0  0  0  0  0  0
   21.7642   21.3262   36.8058 F   0  0  0  0  0  0  0  0  0  0  0  0
   22.0273   22.6021   34.7565 N   0  0  0  0  0  0  0  0  0  0  0  0
   21.9585   21.7113   33.5998 C   0  0  0  0  0  0  0  0  0  0  0  0
   23.2696   20.9150   33.6122 C   0  0  0  0  0  0  0  0  0  0  0  0
   24.2598   21.7449   34.4285 C   0  0  0  0  0  0  0  0  0  0  0  0
   23.4066   22.7902   35.0319 C   0  0  0  0  0  0  0  0  0  0  0  0
   23.9324   23.7436   35.7532 N   0  0  0  0  0  0  0  0  0  0  0  0
   19.8461   22.5360   36.0080 C   0  0  0  0  0  0  0  0  0  0  0  0
  1  2  1  0
  2  3  2  0
  2  4  1  0
  4  5  2  0
  5  6  1  0
  6  7  2  0
  7  8  1  0
  8  9  2  0
  9 10  1  0
 10 11  2  0
 11 12  1  0
 12 13  2  0
 13 14  1  0
  1 15  1  0
 15 16  2  0
 16 17  1  0
 17 18  2  0
 18 19  1  0
 19 20  1  1
 19 21  1  0
 21 22  1  0
 22 23  1  0
 23 24  1  0
 24 25  1  0
 25 26  2  0
 19 27  1  0
 13  4  1  0
 26 15  1  0
 12  7  1  0
 27 18  1  0
 25 21  1  0
M  END
>  <AAScore>  (1) 
984.3044128974096

>  <RootName>  (1) 
./4ZLY/04_DeltaGEst/trajectory_00/rank_00/lead_0116

$$$$
