confid_9
     RDKit          3D

 28 31  0  0  0  0  0  0  0  0999 V2000
   25.3300   26.2600   34.7600 N   0  0  0  0  0  0  0  0  0  0  0  0
   26.1200   25.9200   33.6900 C   0  0  0  0  0  0  0  0  0  0  0  0
   25.6300   25.1100   32.9400 O   0  0  0  0  0  0  0  0  0  0  0  0
   27.5200   26.3800   33.4600 C   0  0  0  0  0  0  0  0  0  0  0  0
   28.1600   26.6300   34.6100 N   0  0  0  0  0  0  0  0  0  0  0  0
   29.4800   26.8500   34.5700 N   0  0  0  0  0  0  0  0  0  0  0  0
   30.1900   26.7800   33.4400 C   0  0  0  0  0  0  0  0  0  0  0  0
   31.5600   27.0500   33.5000 C   0  0  0  0  0  0  0  0  0  0  0  0
   32.2700   27.2400   32.3100 C   0  0  0  0  0  0  0  0  0  0  0  0
   31.6100   27.2500   31.0800 C   0  0  0  0  0  0  0  0  0  0  0  0
   30.2700   26.8700   31.0600 C   0  0  0  0  0  0  0  0  0  0  0  0
   29.5100   26.6900   32.2300 C   0  0  0  0  0  0  0  0  0  0  0  0
   28.1400   26.4100   32.2000 C   0  0  0  0  0  0  0  0  0  0  0  0
   27.4300   26.1300   31.0500 N   0  0  0  0  0  0  0  0  0  0  0  0
   27.5590   24.8230   30.3967 C   0  0  0  0  0  0  0  0  0  0  0  0
   27.5935   24.9902   28.8731 C   0  0  0  0  0  0  0  0  0  0  0  0
   26.4823   25.8498   28.4209 N   0  0  0  0  0  0  0  0  0  0  0  0
   26.3620   25.8962   26.9448 C   0  0  0  0  0  0  0  0  0  0  0  0
   27.5332   26.5583   26.2446 C   0  0  0  0  0  0  0  0  0  0  0  0
   28.5856   25.8767   25.6209 C   0  0  0  0  0  0  0  0  0  0  0  0
   28.7299   24.3958   25.4353 C   0  0  0  0  0  0  0  0  0  0  0  0
   27.7377   23.9197   24.4666 N   0  0  0  0  0  0  0  0  0  0  0  0
   27.7572   22.4583   24.3937 C   0  0  0  0  0  0  0  0  0  0  0  0
   29.6157   27.0111   24.9280 S   0  0  0  0  0  0  0  0  0  0  0  0
   28.7612   28.3721   25.4102 C   0  0  0  0  0  0  0  0  0  0  0  0
   27.6382   27.9543   26.1092 C   0  0  0  0  0  0  0  0  0  0  0  0
   26.5540   27.1903   29.0351 C   0  0  0  0  0  0  0  0  0  0  0  0
   26.4234   27.0705   30.5513 C   0  0  0  0  0  0  0  0  0  0  0  0
  1  2  1  0
  2  3  2  0
  2  4  1  0
  4  5  2  0
  5  6  1  0
  6  7  2  0
  7  8  1  0
  8  9  2  0
  9 10  1  0
 10 11  2  0
 11 12  1  0
 12 13  2  0
 13 14  1  0
 14 15  1  0
 15 16  1  0
 16 17  1  0
 17 18  1  0
 18 19  1  0
 19 20  2  0
 20 21  1  0
 21 22  1  0
 22 23  1  0
 20 24  1  0
 24 25  1  0
 25 26  2  0
 17 27  1  0
 27 28  1  0
 13  4  1  0
 28 14  1  0
 12  7  1  0
 26 19  1  0
M  END
>  <AAScore>  (1) 
2.3914397907651668

>  <RootName>  (1) 
./4ZLY/04_DeltaGEst/trajectory_03/rank_01/lead_0223

$$$$
