confid_1
     RDKit          3D

 26 29  0  0  0  0  0  0  0  0999 V2000
   24.2000   26.2400   35.6900 N   0  0  0  0  0  0  0  0  0  0  0  0
   24.8500   26.2800   34.4800 C   0  0  0  0  0  0  0  0  0  0  0  0
   24.3100   25.7400   33.5400 O   0  0  0  0  0  0  0  0  0  0  0  0
   26.1800   26.9700   34.4700 C   0  0  0  0  0  0  0  0  0  0  0  0
   26.6500   27.6000   35.5500 N   0  0  0  0  0  0  0  0  0  0  0  0
   27.7900   28.2700   35.6200 N   0  0  0  0  0  0  0  0  0  0  0  0
   28.5400   28.3000   34.5100 C   0  0  0  0  0  0  0  0  0  0  0  0
   29.7700   28.9400   34.5600 C   0  0  0  0  0  0  0  0  0  0  0  0
   30.7000   28.8900   33.5000 C   0  0  0  0  0  0  0  0  0  0  0  0
   30.3700   28.1400   32.3700 C   0  0  0  0  0  0  0  0  0  0  0  0
   29.1200   27.5200   32.2800 C   0  0  0  0  0  0  0  0  0  0  0  0
   28.2100   27.6100   33.3300 C   0  0  0  0  0  0  0  0  0  0  0  0
   26.9700   26.9700   33.3100 C   0  0  0  0  0  0  0  0  0  0  0  0
   26.5300   26.2400   32.2200 N   0  0  0  0  0  0  0  0  0  0  0  0
   22.7689   26.1201   35.8262 C   0  0  0  0  0  0  0  0  0  0  0  0
   21.9564   26.3954   34.7556 N   0  0  0  0  0  0  0  0  0  0  0  0
   20.5971   26.3234   34.8232 C   0  0  0  0  0  0  0  0  0  0  0  0
   20.0061   25.9618   36.0276 C   0  0  0  0  0  0  0  0  0  0  0  0
   18.5444   25.8163   36.3396 C   0  0  0  0  0  0  0  0  0  0  0  0
   18.5471   25.4184   37.7489 N   0  0  0  0  0  0  0  0  0  0  0  0
   19.8932   25.3429   38.2046 C   0  0  0  0  0  0  0  0  0  0  0  0
   20.2267   25.0254   39.3771 O   0  0  0  0  0  0  0  0  0  0  0  0
   20.7916   25.6840   37.1229 C   0  0  0  0  0  0  0  0  0  0  0  0
   22.1865   25.7537   37.0654 C   0  0  0  0  0  0  0  0  0  0  0  0
   23.1597   25.3709   38.4830 Cl  0  0  0  0  0  0  0  0  0  0  0  0
   17.3638   25.1447   38.5535 C   0  0  0  0  0  0  0  0  0  0  0  0
  1  2  1  0
  2  3  2  0
  2  4  1  0
  4  5  2  0
  5  6  1  0
  6  7  2  0
  7  8  1  0
  8  9  2  0
  9 10  1  0
 10 11  2  0
 11 12  1  0
 12 13  2  0
 13 14  1  0
  1 15  1  0
 15 16  2  0
 16 17  1  0
 17 18  2  0
 18 19  1  0
 19 20  1  0
 20 21  1  0
 21 22  2  0
 21 23  1  0
 23 24  2  0
 24 25  1  0
 20 26  1  0
 13  4  1  0
 24 15  1  0
 12  7  1  0
 23 18  1  0
M  END
>  <AAScore>  (1) 
353.6944116758794

>  <RootName>  (1) 
./4ZLY/04_DeltaGEst/trajectory_04/rank_00/lead_0116

$$$$
