confid_8
     RDKit          3D

 26 29  0  0  0  0  0  0  0  0999 V2000
   24.2000   26.2400   35.6900 N   0  0  0  0  0  0  0  0  0  0  0  0
   24.8500   26.2800   34.4800 C   0  0  0  0  0  0  0  0  0  0  0  0
   24.3100   25.7400   33.5400 O   0  0  0  0  0  0  0  0  0  0  0  0
   26.1800   26.9700   34.4700 C   0  0  0  0  0  0  0  0  0  0  0  0
   26.6500   27.6000   35.5500 N   0  0  0  0  0  0  0  0  0  0  0  0
   27.7900   28.2700   35.6200 N   0  0  0  0  0  0  0  0  0  0  0  0
   28.5400   28.3000   34.5100 C   0  0  0  0  0  0  0  0  0  0  0  0
   29.7700   28.9400   34.5600 C   0  0  0  0  0  0  0  0  0  0  0  0
   30.7000   28.8900   33.5000 C   0  0  0  0  0  0  0  0  0  0  0  0
   30.3700   28.1400   32.3700 C   0  0  0  0  0  0  0  0  0  0  0  0
   29.1200   27.5200   32.2800 C   0  0  0  0  0  0  0  0  0  0  0  0
   28.2100   27.6100   33.3300 C   0  0  0  0  0  0  0  0  0  0  0  0
   26.9700   26.9700   33.3100 C   0  0  0  0  0  0  0  0  0  0  0  0
   26.5300   26.2400   32.2200 N   0  0  0  0  0  0  0  0  0  0  0  0
   22.7940   25.9900   35.8458 C   0  0  0  0  0  0  0  0  0  0  0  0
   21.9226   25.8803   34.8149 N   0  0  0  0  0  0  0  0  0  0  0  0
   20.6552   25.6785   35.2610 C   0  0  0  0  0  0  0  0  0  0  0  0
   19.4916   25.4619   34.3462 C   0  0  0  0  0  0  0  0  0  0  0  0
   18.1754   25.7842   35.0681 C   0  0  0  0  0  0  0  0  0  0  0  0
   18.1344   25.1325   36.3932 N   0  0  0  0  0  0  0  0  0  0  0  0
   19.2212   25.4088   37.3514 C   0  0  0  0  0  0  0  0  0  0  0  0
   20.5225   25.6060   36.6387 C   0  0  0  0  0  0  0  0  0  0  0  0
   22.0303   25.8391   37.3431 S   0  0  0  0  0  0  0  0  0  0  0  0
   16.9432   24.4663   36.8673 C   0  0  0  0  0  0  0  0  0  0  0  0
   16.7469   24.3399   38.1070 O   0  0  0  0  0  0  0  0  0  0  0  0
   15.9181   23.9140   35.9236 C   0  0  0  0  0  0  0  0  0  0  0  0
  1  2  1  0
  2  3  2  0
  2  4  1  0
  4  5  2  0
  5  6  1  0
  6  7  2  0
  7  8  1  0
  8  9  2  0
  9 10  1  0
 10 11  2  0
 11 12  1  0
 12 13  2  0
 13 14  1  0
  1 15  1  0
 15 16  2  0
 16 17  1  0
 17 18  1  0
 18 19  1  0
 19 20  1  0
 20 21  1  0
 21 22  1  0
 22 23  1  0
 20 24  1  0
 24 25  2  0
 24 26  1  0
 13  4  1  0
 23 15  1  0
 12  7  1  0
 22 17  2  0
M  END
>  <AAScore>  (1) 
2870.656298531821

>  <RootName>  (1) 
./4ZLY/04_DeltaGEst/trajectory_04/rank_00/lead_0461

$$$$
