confid_11
     RDKit          3D

 29 32  0  0  0  0  0  0  0  0999 V2000
   24.5500   26.3900   36.2500 N   0  0  0  0  0  0  0  0  0  0  0  0
   25.6000   26.1300   35.4000 C   0  0  0  0  0  0  0  0  0  0  0  0
   25.4300   25.4300   34.4200 O   0  0  0  0  0  0  0  0  0  0  0  0
   26.9800   26.6300   35.7100 C   0  0  0  0  0  0  0  0  0  0  0  0
   27.3200   26.8200   36.9800 N   0  0  0  0  0  0  0  0  0  0  0  0
   28.4700   27.4000   37.3100 N   0  0  0  0  0  0  0  0  0  0  0  0
   29.4000   27.6300   36.3700 C   0  0  0  0  0  0  0  0  0  0  0  0
   30.6600   28.0500   36.8000 C   0  0  0  0  0  0  0  0  0  0  0  0
   31.5700   28.3600   35.7800 C   0  0  0  0  0  0  0  0  0  0  0  0
   31.3700   28.1000   34.4300 C   0  0  0  0  0  0  0  0  0  0  0  0
   30.1200   27.5900   34.0500 C   0  0  0  0  0  0  0  0  0  0  0  0
   29.1500   27.3400   35.0300 C   0  0  0  0  0  0  0  0  0  0  0  0
   27.8800   26.8900   34.6600 C   0  0  0  0  0  0  0  0  0  0  0  0
   27.4800   26.6100   33.3700 N   0  0  0  0  0  0  0  0  0  0  0  0
   30.9647   28.2954   38.1833 N   0  0  0  0  0  0  0  0  0  0  0  0
   30.9916   27.1812   39.1393 C   0  0  0  0  0  0  0  0  0  0  0  0
   30.2054   27.5538   40.4029 C   0  0  0  0  0  0  0  0  0  0  0  0
   30.4786   28.9380   40.8232 N   0  0  0  0  0  0  0  0  0  0  0  0
   29.6696   29.5398   41.8518 C   0  0  0  0  0  0  0  0  0  0  0  0
   29.4479   28.8705   43.0658 C   0  0  0  0  0  0  0  0  0  0  0  0
   28.6513   29.4488   44.0588 C   0  0  0  0  0  0  0  0  0  0  0  0
   28.4558   28.7890   45.2278 F   0  0  0  0  0  0  0  0  0  0  0  0
   28.0579   30.7008   43.8544 C   0  0  0  0  0  0  0  0  0  0  0  0
   27.2662   31.2417   44.8790 O   0  0  0  0  0  0  0  0  0  0  0  0
   26.6047   32.5004   44.8050 C   0  0  0  0  0  0  0  0  0  0  0  0
   28.2726   31.3707   42.6351 C   0  0  0  0  0  0  0  0  0  0  0  0
   29.0701   30.7925   41.6436 C   0  0  0  0  0  0  0  0  0  0  0  0
   31.5176   29.7166   40.1352 C   0  0  0  0  0  0  0  0  0  0  0  0
   31.2861   29.6611   38.6224 C   0  0  0  0  0  0  0  0  0  0  0  0
  1  2  1  0
  2  3  2  0
  2  4  1  0
  4  5  2  0
  5  6  1  0
  6  7  2  0
  7  8  1  0
  8  9  2  0
  9 10  1  0
 10 11  2  0
 11 12  1  0
 12 13  2  0
 13 14  1  0
  8 15  1  0
 15 16  1  0
 16 17  1  0
 17 18  1  0
 18 19  1  0
 19 20  2  0
 20 21  1  0
 21 22  1  0
 21 23  2  0
 23 24  1  0
 24 25  1  0
 23 26  1  0
 26 27  2  0
 18 28  1  0
 28 29  1  0
 13  4  1  0
 29 15  1  0
 12  7  1  0
 27 19  1  0
M  END
>  <AAScore>  (1) 
110.38488363434897

>  <RootName>  (1) 
./4ZLY/04_DeltaGEst/trajectory_01/rank_01/lead_0297

$$$$
