confid_4
     RDKit          3D

 27 30  0  0  0  0  0  0  0  0999 V2000
   24.4800   26.1000   36.1300 N   0  0  0  0  0  0  0  0  0  0  0  0
   25.2500   26.2500   34.9900 C   0  0  0  0  0  0  0  0  0  0  0  0
   24.7400   25.7600   33.9900 O   0  0  0  0  0  0  0  0  0  0  0  0
   26.5900   26.8900   34.9600 C   0  0  0  0  0  0  0  0  0  0  0  0
   27.0600   27.2400   36.1600 N   0  0  0  0  0  0  0  0  0  0  0  0
   28.3000   27.7100   36.2400 N   0  0  0  0  0  0  0  0  0  0  0  0
   29.0500   27.9600   35.1500 C   0  0  0  0  0  0  0  0  0  0  0  0
   30.3400   28.4900   35.2600 C   0  0  0  0  0  0  0  0  0  0  0  0
   31.1100   28.8200   34.1400 C   0  0  0  0  0  0  0  0  0  0  0  0
   30.5200   28.6700   32.8800 C   0  0  0  0  0  0  0  0  0  0  0  0
   29.2900   28.0200   32.7700 C   0  0  0  0  0  0  0  0  0  0  0  0
   28.5200   27.7100   33.8900 C   0  0  0  0  0  0  0  0  0  0  0  0
   27.2700   27.0800   33.7600 C   0  0  0  0  0  0  0  0  0  0  0  0
   26.7500   26.8800   32.4900 N   0  0  0  0  0  0  0  0  0  0  0  0
   23.5038   25.0577   36.3391 C   0  0  0  0  0  0  0  0  0  0  0  0
   22.5798   25.1519   37.3957 C   0  0  0  0  0  0  0  0  0  0  0  0
   21.6649   24.1015   37.5891 C   0  0  0  0  0  0  0  0  0  0  0  0
   21.6838   22.9802   36.7519 C   0  0  0  0  0  0  0  0  0  0  0  0
   20.6542   21.8963   36.9317 C   0  0  0  0  0  0  0  0  0  0  0  0
   20.9988   20.6270   36.1363 C   0  0  0  0  0  0  0  0  0  0  0  0
   21.4782   20.9257   34.7721 N   0  0  0  0  0  0  0  0  0  0  0  0
   20.4387   21.5399   33.9278 C   0  0  0  0  0  0  0  0  0  0  0  0
   22.7153   21.7314   34.8001 C   0  0  0  0  0  0  0  0  0  0  0  0
   22.6114   22.9368   35.6986 C   0  0  0  0  0  0  0  0  0  0  0  0
   23.4963   23.9555   35.5386 N   0  0  0  0  0  0  0  0  0  0  0  0
   22.5923   26.2899   38.2187 O   0  0  0  0  0  0  0  0  0  0  0  0
   21.7104   26.5027   39.3161 C   0  0  0  0  0  0  0  0  0  0  0  0
  1  2  1  0
  2  3  2  0
  2  4  1  0
  4  5  2  0
  5  6  1  0
  6  7  2  0
  7  8  1  0
  8  9  2  0
  9 10  1  0
 10 11  2  0
 11 12  1  0
 12 13  2  0
 13 14  1  0
  1 15  1  0
 15 16  2  0
 16 17  1  0
 17 18  2  0
 18 19  1  0
 19 20  1  0
 20 21  1  0
 21 22  1  0
 21 23  1  0
 23 24  1  0
 24 25  2  0
 16 26  1  0
 26 27  1  0
 13  4  1  0
 25 15  1  0
 12  7  1  0
 24 18  1  0
M  END
>  <AAScore>  (1) 
234.60965538914076

>  <RootName>  (1) 
./4ZLY/04_DeltaGEst/trajectory_00/rank_01/lead_0057

$$$$
