confid_9
     RDKit          3D

 29 32  0  0  0  0  0  0  0  0999 V2000
   25.3300   26.2600   34.7600 N   0  0  0  0  0  0  0  0  0  0  0  0
   26.1200   25.9200   33.6900 C   0  0  0  0  0  0  0  0  0  0  0  0
   25.6300   25.1100   32.9400 O   0  0  0  0  0  0  0  0  0  0  0  0
   27.5200   26.3800   33.4600 C   0  0  0  0  0  0  0  0  0  0  0  0
   28.1600   26.6300   34.6100 N   0  0  0  0  0  0  0  0  0  0  0  0
   29.4800   26.8500   34.5700 N   0  0  0  0  0  0  0  0  0  0  0  0
   30.1900   26.7800   33.4400 C   0  0  0  0  0  0  0  0  0  0  0  0
   31.5600   27.0500   33.5000 C   0  0  0  0  0  0  0  0  0  0  0  0
   32.2700   27.2400   32.3100 C   0  0  0  0  0  0  0  0  0  0  0  0
   31.6100   27.2500   31.0800 C   0  0  0  0  0  0  0  0  0  0  0  0
   30.2700   26.8700   31.0600 C   0  0  0  0  0  0  0  0  0  0  0  0
   29.5100   26.6900   32.2300 C   0  0  0  0  0  0  0  0  0  0  0  0
   28.1400   26.4100   32.2000 C   0  0  0  0  0  0  0  0  0  0  0  0
   27.4300   26.1300   31.0500 N   0  0  0  0  0  0  0  0  0  0  0  0
   27.5608   24.8054   30.4253 C   0  0  0  0  0  0  0  0  0  0  0  0
   26.5949   24.6464   29.2469 C   0  0  0  0  0  0  0  0  0  0  0  0
   26.6610   25.8256   28.3744 N   0  0  0  0  0  0  0  0  0  0  0  0
   26.4626   25.6718   26.9575 C   0  0  0  0  0  0  0  0  0  0  0  0
   25.7034   24.7610   26.5274 O   0  0  0  0  0  0  0  0  0  0  0  0
   27.1208   26.5760   25.9922 C   0  0  0  0  0  0  0  0  0  0  0  0
   28.4997   26.8598   26.0903 C   0  0  0  0  0  0  0  0  0  0  0  0
   29.2559   26.2326   27.0951 O   0  0  0  0  0  0  0  0  0  0  0  0
   30.6573   26.4053   27.2787 C   0  0  0  0  0  0  0  0  0  0  0  0
   29.0868   27.7451   25.1637 C   0  0  0  0  0  0  0  0  0  0  0  0
   28.3191   28.3135   24.1445 C   0  0  0  0  0  0  0  0  0  0  0  0
   26.9632   28.0053   24.0337 C   0  0  0  0  0  0  0  0  0  0  0  0
   26.3661   27.1371   24.9495 C   0  0  0  0  0  0  0  0  0  0  0  0
   26.7014   27.1792   28.9537 C   0  0  0  0  0  0  0  0  0  0  0  0
   26.5421   27.1468   30.4767 C   0  0  0  0  0  0  0  0  0  0  0  0
  1  2  1  0
  2  3  2  0
  2  4  1  0
  4  5  2  0
  5  6  1  0
  6  7  2  0
  7  8  1  0
  8  9  2  0
  9 10  1  0
 10 11  2  0
 11 12  1  0
 12 13  2  0
 13 14  1  0
 14 15  1  0
 15 16  1  0
 16 17  1  0
 17 18  1  0
 18 19  2  0
 18 20  1  0
 20 21  2  0
 21 22  1  0
 22 23  1  0
 21 24  1  0
 24 25  2  0
 25 26  1  0
 26 27  2  0
 17 28  1  0
 28 29  1  0
 13  4  1  0
 29 14  1  0
 12  7  1  0
 27 20  1  0
M  END
>  <AAScore>  (1) 
4.6528534613113495

>  <RootName>  (1) 
./4ZLY/04_DeltaGEst/trajectory_03/rank_01/lead_0299

$$$$
