confid_19
     RDKit          3D

 28 31  0  0  0  0  0  0  0  0999 V2000
   24.2000   26.2400   35.6900 N   0  0  0  0  0  0  0  0  0  0  0  0
   24.8500   26.2800   34.4800 C   0  0  0  0  0  0  0  0  0  0  0  0
   24.3100   25.7400   33.5400 O   0  0  0  0  0  0  0  0  0  0  0  0
   26.1800   26.9700   34.4700 C   0  0  0  0  0  0  0  0  0  0  0  0
   26.6500   27.6000   35.5500 N   0  0  0  0  0  0  0  0  0  0  0  0
   27.7900   28.2700   35.6200 N   0  0  0  0  0  0  0  0  0  0  0  0
   28.5400   28.3000   34.5100 C   0  0  0  0  0  0  0  0  0  0  0  0
   29.7700   28.9400   34.5600 C   0  0  0  0  0  0  0  0  0  0  0  0
   30.7000   28.8900   33.5000 C   0  0  0  0  0  0  0  0  0  0  0  0
   30.3700   28.1400   32.3700 C   0  0  0  0  0  0  0  0  0  0  0  0
   29.1200   27.5200   32.2800 C   0  0  0  0  0  0  0  0  0  0  0  0
   28.2100   27.6100   33.3300 C   0  0  0  0  0  0  0  0  0  0  0  0
   26.9700   26.9700   33.3100 C   0  0  0  0  0  0  0  0  0  0  0  0
   26.5300   26.2400   32.2200 N   0  0  0  0  0  0  0  0  0  0  0  0
   23.1574   25.2963   35.9972 C   0  0  0  0  0  0  0  0  0  0  0  0
   23.0026   24.1227   35.3530 N   0  0  0  0  0  0  0  0  0  0  0  0
   22.0043   23.5088   36.0210 C   0  0  0  0  0  0  0  0  0  0  0  0
   21.5082   22.1443   35.6333 C   0  0  0  0  0  0  0  0  0  0  0  0
   20.0120   21.9771   35.9460 C   0  0  0  0  0  0  0  0  0  0  0  0
   19.7230   21.6074   37.2861 O   0  0  0  0  0  0  0  0  0  0  0  0
   20.4599   22.3246   38.2651 C   0  0  0  0  0  0  0  0  0  0  0  0
   20.5114   23.8472   38.0449 C   0  0  0  0  0  0  0  0  0  0  0  0
   21.5576   24.2262   37.0830 N   0  0  0  0  0  0  0  0  0  0  0  0
   22.2518   25.3876   37.0434 C   0  0  0  0  0  0  0  0  0  0  0  0
   22.0910   26.5395   38.0069 C   0  0  0  0  0  0  0  0  0  0  0  0
   22.8716   26.3142   39.1247 F   0  0  0  0  0  0  0  0  0  0  0  0
   20.7697   26.6720   38.3913 F   0  0  0  0  0  0  0  0  0  0  0  0
   22.4721   27.7303   37.4173 F   0  0  0  0  0  0  0  0  0  0  0  0
  1  2  1  0
  2  3  2  0
  2  4  1  0
  4  5  2  0
  5  6  1  0
  6  7  2  0
  7  8  1  0
  8  9  2  0
  9 10  1  0
 10 11  2  0
 11 12  1  0
 12 13  2  0
 13 14  1  0
  1 15  1  0
 15 16  1  0
 16 17  2  0
 17 18  1  0
 18 19  1  0
 19 20  1  0
 20 21  1  0
 21 22  1  0
 22 23  1  0
 23 24  1  0
 24 25  1  0
 25 26  1  0
 25 27  1  0
 25 28  1  0
 13  4  1  0
 24 15  2  0
 12  7  1  0
 23 17  1  0
M  END
>  <AAScore>  (1) 
2038.381590744318

>  <RootName>  (1) 
./4ZLY/04_DeltaGEst/trajectory_04/rank_00/lead_0449

$$$$
