confid_1
     RDKit          3D

 26 29  0  0  0  0  0  0  0  0999 V2000
   25.3300   26.2600   34.7600 N   0  0  0  0  0  0  0  0  0  0  0  0
   26.1200   25.9200   33.6900 C   0  0  0  0  0  0  0  0  0  0  0  0
   25.6300   25.1100   32.9400 O   0  0  0  0  0  0  0  0  0  0  0  0
   27.5200   26.3800   33.4600 C   0  0  0  0  0  0  0  0  0  0  0  0
   28.1600   26.6300   34.6100 N   0  0  0  0  0  0  0  0  0  0  0  0
   29.4800   26.8500   34.5700 N   0  0  0  0  0  0  0  0  0  0  0  0
   30.1900   26.7800   33.4400 C   0  0  0  0  0  0  0  0  0  0  0  0
   31.5600   27.0500   33.5000 C   0  0  0  0  0  0  0  0  0  0  0  0
   32.2700   27.2400   32.3100 C   0  0  0  0  0  0  0  0  0  0  0  0
   31.6100   27.2500   31.0800 C   0  0  0  0  0  0  0  0  0  0  0  0
   30.2700   26.8700   31.0600 C   0  0  0  0  0  0  0  0  0  0  0  0
   29.5100   26.6900   32.2300 C   0  0  0  0  0  0  0  0  0  0  0  0
   28.1400   26.4100   32.2000 C   0  0  0  0  0  0  0  0  0  0  0  0
   27.4300   26.1300   31.0500 N   0  0  0  0  0  0  0  0  0  0  0  0
   23.9456   25.9092   34.9363 C   0  0  0  0  0  0  0  0  0  0  0  0
   23.2003   25.2567   34.0017 N   0  0  0  0  0  0  0  0  0  0  0  0
   21.9420   25.1012   34.4725 C   0  0  0  0  0  0  0  0  0  0  0  0
   20.7265   24.5601   33.8334 C   0  0  0  0  0  0  0  0  0  0  0  0
   19.7014   24.8260   34.8587 N   0  0  0  0  0  0  0  0  0  0  0  0
   18.3081   24.5076   34.7134 C   0  0  0  0  0  0  0  0  0  0  0  0
   17.5029   24.8200   35.6336 O   0  0  0  0  0  0  0  0  0  0  0  0
   17.8037   23.8400   33.4582 C   0  0  0  0  0  0  0  0  0  0  0  0
   16.3462   23.3923   33.5618 C   0  0  0  0  0  0  0  0  0  0  0  0
   20.2552   25.4957   36.0474 C   0  0  0  0  0  0  0  0  0  0  0  0
   21.6809   25.6066   35.6901 C   0  0  0  0  0  0  0  0  0  0  0  0
   23.0475   26.3354   36.3259 S   0  0  0  0  0  0  0  0  0  0  0  0
  1  2  1  0
  2  3  2  0
  2  4  1  0
  4  5  2  0
  5  6  1  0
  6  7  2  0
  7  8  1  0
  8  9  2  0
  9 10  1  0
 10 11  2  0
 11 12  1  0
 12 13  2  0
 13 14  1  0
  1 15  1  0
 15 16  2  0
 16 17  1  0
 17 18  1  0
 18 19  1  0
 19 20  1  0
 20 21  2  0
 20 22  1  0
 22 23  1  0
 19 24  1  0
 24 25  1  0
 25 26  1  0
 13  4  1  0
 26 15  1  0
 12  7  1  0
 25 17  2  0
M  END
>  <AAScore>  (1) 
4254.254542451227

>  <RootName>  (1) 
./4ZLY/04_DeltaGEst/trajectory_03/rank_00/lead_0056

$$$$
