confid_11
     RDKit          3D

 28 31  0  0  0  0  0  0  0  0999 V2000
   24.4800   26.1000   36.1300 N   0  0  0  0  0  0  0  0  0  0  0  0
   25.2500   26.2500   34.9900 C   0  0  0  0  0  0  0  0  0  0  0  0
   24.7400   25.7600   33.9900 O   0  0  0  0  0  0  0  0  0  0  0  0
   26.5900   26.8900   34.9600 C   0  0  0  0  0  0  0  0  0  0  0  0
   27.0600   27.2400   36.1600 N   0  0  0  0  0  0  0  0  0  0  0  0
   28.3000   27.7100   36.2400 N   0  0  0  0  0  0  0  0  0  0  0  0
   29.0500   27.9600   35.1500 C   0  0  0  0  0  0  0  0  0  0  0  0
   30.3400   28.4900   35.2600 C   0  0  0  0  0  0  0  0  0  0  0  0
   31.1100   28.8200   34.1400 C   0  0  0  0  0  0  0  0  0  0  0  0
   30.5200   28.6700   32.8800 C   0  0  0  0  0  0  0  0  0  0  0  0
   29.2900   28.0200   32.7700 C   0  0  0  0  0  0  0  0  0  0  0  0
   28.5200   27.7100   33.8900 C   0  0  0  0  0  0  0  0  0  0  0  0
   27.2700   27.0800   33.7600 C   0  0  0  0  0  0  0  0  0  0  0  0
   26.7500   26.8800   32.4900 N   0  0  0  0  0  0  0  0  0  0  0  0
   23.4792   25.0872   36.3377 C   0  0  0  0  0  0  0  0  0  0  0  0
   22.4225   25.3613   37.1622 N   0  0  0  0  0  0  0  0  0  0  0  0
   21.4423   24.4498   37.4345 C   0  0  0  0  0  0  0  0  0  0  0  0
   20.3701   24.7989   38.3261 N   0  0  0  0  0  0  0  0  0  0  0  0
   20.7061   25.4115   39.6143 C   0  0  0  0  0  0  0  0  0  0  0  0
   18.9795   24.7913   37.8528 C   0  0  0  0  0  0  0  0  0  0  0  0
   18.1036   23.8836   38.7149 C   0  0  0  0  0  0  0  0  0  0  0  0
   21.5418   23.1765   36.8573 C   0  0  0  0  0  0  0  0  0  0  0  0
   22.6051   22.8675   36.0563 C   0  0  0  0  0  0  0  0  0  0  0  0
   23.6035   23.8000   35.7750 C   0  0  0  0  0  0  0  0  0  0  0  0
   22.5705   21.5120   35.6516 N   0  0  0  0  0  0  0  0  0  0  0  0
   23.5617   20.8424   34.8170 C   0  0  0  0  0  0  0  0  0  0  0  0
   21.4089   20.8651   36.2563 C   0  0  0  0  0  0  0  0  0  0  0  0
   20.6785   21.9730   37.0547 C   0  0  0  0  0  0  0  0  0  0  0  0
  1  2  1  0
  2  3  2  0
  2  4  1  0
  4  5  2  0
  5  6  1  0
  6  7  2  0
  7  8  1  0
  8  9  2  0
  9 10  1  0
 10 11  2  0
 11 12  1  0
 12 13  2  0
 13 14  1  0
  1 15  1  0
 15 16  2  0
 16 17  1  0
 17 18  1  0
 18 19  1  0
 18 20  1  0
 20 21  1  0
 17 22  2  0
 22 23  1  0
 23 24  2  0
 23 25  1  0
 25 26  1  0
 25 27  1  0
 27 28  1  0
 13  4  1  0
 24 15  1  0
 12  7  1  0
 28 22  1  0
M  END
>  <AAScore>  (1) 
716.6022367843811

>  <RootName>  (1) 
./4ZLY/04_DeltaGEst/trajectory_00/rank_01/lead_0482

$$$$
