confid_10
     RDKit          3D

 28 31  0  0  0  0  0  0  0  0999 V2000
   24.5500   26.3900   36.2500 N   0  0  0  0  0  0  0  0  0  0  0  0
   25.6000   26.1300   35.4000 C   0  0  0  0  0  0  0  0  0  0  0  0
   25.4300   25.4300   34.4200 O   0  0  0  0  0  0  0  0  0  0  0  0
   26.9800   26.6300   35.7100 C   0  0  0  0  0  0  0  0  0  0  0  0
   27.3200   26.8200   36.9800 N   0  0  0  0  0  0  0  0  0  0  0  0
   28.4700   27.4000   37.3100 N   0  0  0  0  0  0  0  0  0  0  0  0
   29.4000   27.6300   36.3700 C   0  0  0  0  0  0  0  0  0  0  0  0
   30.6600   28.0500   36.8000 C   0  0  0  0  0  0  0  0  0  0  0  0
   31.5700   28.3600   35.7800 C   0  0  0  0  0  0  0  0  0  0  0  0
   31.3700   28.1000   34.4300 C   0  0  0  0  0  0  0  0  0  0  0  0
   30.1200   27.5900   34.0500 C   0  0  0  0  0  0  0  0  0  0  0  0
   29.1500   27.3400   35.0300 C   0  0  0  0  0  0  0  0  0  0  0  0
   27.8800   26.8900   34.6600 C   0  0  0  0  0  0  0  0  0  0  0  0
   27.4800   26.6100   33.3700 N   0  0  0  0  0  0  0  0  0  0  0  0
   30.9634   28.3051   38.1798 N   0  0  0  0  0  0  0  0  0  0  0  0
   30.3238   29.4230   38.8815 C   0  0  0  0  0  0  0  0  0  0  0  0
   29.9487   29.0320   40.3271 C   0  0  0  0  0  0  0  0  0  0  0  0
   30.5937   27.7733   40.7643 N   0  0  0  0  0  0  0  0  0  0  0  0
   30.4565   27.5869   42.2256 C   0  0  0  0  0  0  0  0  0  0  0  0
   30.3458   26.0882   42.5770 C   0  0  0  0  0  0  0  0  0  0  0  0
   29.0674   25.4494   41.9750 C   0  0  0  0  0  0  0  0  0  0  0  0
   27.9475   25.3520   43.0150 C   0  0  0  0  0  0  0  0  0  0  0  0
   28.3357   24.4817   44.1498 N   0  0  0  0  0  0  0  0  0  0  0  0
   27.4612   24.7311   45.3053 C   0  0  0  0  0  0  0  0  0  0  0  0
   29.7713   24.5674   44.5271 C   0  0  0  0  0  0  0  0  0  0  0  0
   30.4157   25.8959   44.1098 C   0  0  0  0  0  0  0  0  0  0  0  0
   32.0058   27.7376   40.3394 C   0  0  0  0  0  0  0  0  0  0  0  0
   32.0616   27.5729   38.8187 C   0  0  0  0  0  0  0  0  0  0  0  0
  1  2  1  0
  2  3  2  0
  2  4  1  0
  4  5  2  0
  5  6  1  0
  6  7  2  0
  7  8  1  0
  8  9  2  0
  9 10  1  0
 10 11  2  0
 11 12  1  0
 12 13  2  0
 13 14  1  0
  8 15  1  0
 15 16  1  0
 16 17  1  0
 17 18  1  0
 18 19  1  0
 19 20  1  0
 20 21  1  0
 21 22  1  0
 22 23  1  0
 23 24  1  0
 23 25  1  0
 25 26  1  0
 18 27  1  0
 27 28  1  0
 13  4  1  0
 28 15  1  0
 12  7  1  0
 26 20  1  0
M  END
>  <AAScore>  (1) 
63.48917809497522

>  <RootName>  (1) 
./4ZLY/04_DeltaGEst/trajectory_01/rank_01/lead_0240

$$$$
