confid_2
     RDKit          3D

 28 31  0  0  0  0  0  0  0  0999 V2000
   24.4800   26.1000   36.1300 N   0  0  0  0  0  0  0  0  0  0  0  0
   25.2500   26.2500   34.9900 C   0  0  0  0  0  0  0  0  0  0  0  0
   24.7400   25.7600   33.9900 O   0  0  0  0  0  0  0  0  0  0  0  0
   26.5900   26.8900   34.9600 C   0  0  0  0  0  0  0  0  0  0  0  0
   27.0600   27.2400   36.1600 N   0  0  0  0  0  0  0  0  0  0  0  0
   28.3000   27.7100   36.2400 N   0  0  0  0  0  0  0  0  0  0  0  0
   29.0500   27.9600   35.1500 C   0  0  0  0  0  0  0  0  0  0  0  0
   30.3400   28.4900   35.2600 C   0  0  0  0  0  0  0  0  0  0  0  0
   31.1100   28.8200   34.1400 C   0  0  0  0  0  0  0  0  0  0  0  0
   30.5200   28.6700   32.8800 C   0  0  0  0  0  0  0  0  0  0  0  0
   29.2900   28.0200   32.7700 C   0  0  0  0  0  0  0  0  0  0  0  0
   28.5200   27.7100   33.8900 C   0  0  0  0  0  0  0  0  0  0  0  0
   27.2700   27.0800   33.7600 C   0  0  0  0  0  0  0  0  0  0  0  0
   26.7500   26.8800   32.4900 N   0  0  0  0  0  0  0  0  0  0  0  0
   23.4851   25.0773   36.3368 C   0  0  0  0  0  0  0  0  0  0  0  0
   23.3947   24.0097   35.4944 N   0  0  0  0  0  0  0  0  0  0  0  0
   22.4756   23.0219   35.6688 C   0  0  0  0  0  0  0  0  0  0  0  0
   22.4543   21.8504   34.7296 C   0  0  0  0  0  0  0  0  0  0  0  0
   21.0908   21.3256   34.5757 N   0  0  0  0  0  0  0  0  0  0  0  0
   20.2045   21.3023   35.7138 C   0  0  0  0  0  0  0  0  0  0  0  0
   19.0957   20.7052   35.6489 O   0  0  0  0  0  0  0  0  0  0  0  0
   20.6092   21.9567   37.0037 C   0  0  0  0  0  0  0  0  0  0  0  0
   21.5914   23.0720   36.7606 C   0  0  0  0  0  0  0  0  0  0  0  0
   21.6852   24.1452   37.6551 C   0  0  0  0  0  0  0  0  0  0  0  0
   22.6280   25.1522   37.4427 C   0  0  0  0  0  0  0  0  0  0  0  0
   20.6821   20.7280   33.2983 C   0  0  0  0  0  0  0  0  0  0  0  0
   19.7309   21.6693   32.5536 C   0  0  0  0  0  0  0  0  0  0  0  0
   19.3081   21.0799   31.2114 C   0  0  0  0  0  0  0  0  0  0  0  0
  1  2  1  0
  2  3  2  0
  2  4  1  0
  4  5  2  0
  5  6  1  0
  6  7  2  0
  7  8  1  0
  8  9  2  0
  9 10  1  0
 10 11  2  0
 11 12  1  0
 12 13  2  0
 13 14  1  0
  1 15  1  0
 15 16  2  0
 16 17  1  0
 17 18  1  0
 18 19  1  0
 19 20  1  0
 20 21  2  0
 20 22  1  0
 22 23  1  0
 23 24  1  0
 24 25  2  0
 19 26  1  0
 26 27  1  0
 27 28  1  0
 13  4  1  0
 25 15  1  0
 12  7  1  0
 23 17  2  0
M  END
>  <AAScore>  (1) 
247.30629736330349

>  <RootName>  (1) 
./4ZLY/04_DeltaGEst/trajectory_00/rank_01/lead_0145

$$$$
