confid_18
     RDKit          3D

 29 33  0  0  0  0  0  0  0  0999 V2000
   25.3300   26.2600   34.7600 N   0  0  0  0  0  0  0  0  0  0  0  0
   26.1200   25.9200   33.6900 C   0  0  0  0  0  0  0  0  0  0  0  0
   25.6300   25.1100   32.9400 O   0  0  0  0  0  0  0  0  0  0  0  0
   27.5200   26.3800   33.4600 C   0  0  0  0  0  0  0  0  0  0  0  0
   28.1600   26.6300   34.6100 N   0  0  0  0  0  0  0  0  0  0  0  0
   29.4800   26.8500   34.5700 N   0  0  0  0  0  0  0  0  0  0  0  0
   30.1900   26.7800   33.4400 C   0  0  0  0  0  0  0  0  0  0  0  0
   31.5600   27.0500   33.5000 C   0  0  0  0  0  0  0  0  0  0  0  0
   32.2700   27.2400   32.3100 C   0  0  0  0  0  0  0  0  0  0  0  0
   31.6100   27.2500   31.0800 C   0  0  0  0  0  0  0  0  0  0  0  0
   30.2700   26.8700   31.0600 C   0  0  0  0  0  0  0  0  0  0  0  0
   29.5100   26.6900   32.2300 C   0  0  0  0  0  0  0  0  0  0  0  0
   28.1400   26.4100   32.2000 C   0  0  0  0  0  0  0  0  0  0  0  0
   27.4300   26.1300   31.0500 N   0  0  0  0  0  0  0  0  0  0  0  0
   23.9968   25.7659   34.9558 C   0  0  0  0  0  0  0  0  0  0  0  0
   23.1023   25.9525   34.0245 N   0  0  0  0  0  0  0  0  0  0  0  0
   21.7367   25.5331   34.1147 C   0  0  0  0  0  0  0  0  0  0  0  0
   21.4273   24.2540   34.2774 C   0  0  0  0  0  0  0  0  0  0  0  0
   20.2329   23.3977   34.5705 C   0  0  0  0  0  0  0  0  0  0  0  0
   20.9465   22.2015   34.6405 O   0  0  0  0  0  0  0  0  0  0  0  0
   22.1003   22.9090   34.3116 C   0  0  2  0  0  0  0  0  0  0  0  0
   23.2140   22.7250   35.3604 C   0  0  0  0  0  0  0  0  0  0  0  0
   23.2816   23.7885   36.4224 C   0  0  0  0  0  0  0  0  0  0  0  0
   23.6645   25.1129   36.2418 C   0  0  0  0  0  0  0  0  0  0  0  0
   23.8875   25.6353   37.5025 C   0  0  0  0  0  0  0  0  0  0  0  0
   23.6305   24.6896   38.4231 N   0  0  0  0  0  0  0  0  0  0  0  0
   23.2751   23.5579   37.7823 C   0  0  0  0  0  0  0  0  0  0  0  0
   23.8306   24.8547   39.7833 O   0  0  0  0  0  0  0  0  0  0  0  0
   23.6052   23.8044   40.7181 C   0  0  0  0  0  0  0  0  0  0  0  0
  1  2  1  0
  2  3  2  0
  2  4  1  0
  4  5  2  0
  5  6  1  0
  6  7  2  0
  7  8  1  0
  8  9  2  0
  9 10  1  0
 10 11  2  0
 11 12  1  0
 12 13  2  0
 13 14  1  0
  1 15  1  0
 15 16  2  0
 16 17  1  0
 17 18  2  0
 18 19  1  0
 19 20  1  0
 20 21  1  0
 21 22  1  1
 22 23  1  0
 23 24  1  0
 24 25  2  0
 25 26  1  0
 26 27  1  0
 26 28  1  0
 28 29  1  0
 13  4  1  0
 24 15  1  0
 12  7  1  0
 21 18  1  0
 27 23  2  0
M  END
>  <AAScore>  (1) 
7567.525424146906

>  <RootName>  (1) 
./4ZLY/04_DeltaGEst/trajectory_03/rank_00/lead_0064

$$$$
