confid_13
     RDKit          3D

 27 30  0  0  0  0  0  0  0  0999 V2000
   24.5700   26.8800   35.5900 N   0  0  0  0  0  0  0  0  0  0  0  0
   25.5000   26.4000   34.6900 C   0  0  0  0  0  0  0  0  0  0  0  0
   25.1700   25.5200   33.9100 O   0  0  0  0  0  0  0  0  0  0  0  0
   26.8400   27.0200   34.7400 C   0  0  0  0  0  0  0  0  0  0  0  0
   27.3800   27.2800   35.9400 N   0  0  0  0  0  0  0  0  0  0  0  0
   28.6200   27.7400   36.0300 N   0  0  0  0  0  0  0  0  0  0  0  0
   29.3800   28.0000   34.9600 C   0  0  0  0  0  0  0  0  0  0  0  0
   30.6700   28.5000   35.1300 C   0  0  0  0  0  0  0  0  0  0  0  0
   31.5400   28.6100   34.0300 C   0  0  0  0  0  0  0  0  0  0  0  0
   31.0900   28.2200   32.7700 C   0  0  0  0  0  0  0  0  0  0  0  0
   29.8000   27.7000   32.6000 C   0  0  0  0  0  0  0  0  0  0  0  0
   28.9600   27.5500   33.7100 C   0  0  0  0  0  0  0  0  0  0  0  0
   27.6600   27.0300   33.5900 C   0  0  0  0  0  0  0  0  0  0  0  0
   27.1600   26.7400   32.3400 N   0  0  0  0  0  0  0  0  0  0  0  0
   23.1652   26.5908   35.5130 C   0  0  0  0  0  0  0  0  0  0  0  0
   22.3448   26.6555   36.5915 N   0  0  0  0  0  0  0  0  0  0  0  0
   21.0975   26.5182   36.0800 C   0  0  0  0  0  0  0  0  0  0  0  0
   21.2099   26.3626   34.7192 C   0  0  0  0  0  0  0  0  0  0  0  0
   20.3901   26.8080   33.6274 C   0  0  0  0  0  0  0  0  0  0  0  0
   19.1433   26.9868   33.6386 O   0  0  0  0  0  0  0  0  0  0  0  0
   21.2573   27.1218   32.5387 N   0  0  0  0  0  0  0  0  0  0  0  0
   20.8588   27.6572   31.2381 C   0  0  0  0  0  0  0  0  0  0  0  0
   20.1475   26.5787   30.3961 C   0  0  0  0  0  0  0  0  0  0  0  0
   19.6026   27.1873   29.0969 C   0  0  0  0  0  0  0  0  0  0  0  0
   21.0911   25.4092   30.0800 C   0  0  0  0  0  0  0  0  0  0  0  0
   22.6417   26.9414   33.0091 C   0  0  0  0  0  0  0  0  0  0  0  0
   22.4853   26.4037   34.3637 N   0  0  0  0  0  0  0  0  0  0  0  0
  1  2  1  0
  2  3  2  0
  2  4  1  0
  4  5  2  0
  5  6  1  0
  6  7  2  0
  7  8  1  0
  8  9  2  0
  9 10  1  0
 10 11  2  0
 11 12  1  0
 12 13  2  0
 13 14  1  0
  1 15  1  0
 15 16  2  0
 16 17  1  0
 17 18  2  0
 18 19  1  0
 19 20  2  0
 19 21  1  0
 21 22  1  0
 22 23  1  0
 23 24  1  0
 23 25  1  0
 21 26  1  0
 26 27  1  0
 13  4  1  0
 27 15  1  0
 12  7  1  0
 27 18  1  0
M  END
>  <AAScore>  (1) 
344.8024388076968

>  <RootName>  (1) 
./4ZLY/04_DeltaGEst/trajectory_05/rank_00/lead_0190

$$$$
