confid_6
     RDKit          3D

 27 31  0  0  0  0  0  0  0  0999 V2000
   25.3300   26.2600   34.7600 N   0  0  0  0  0  0  0  0  0  0  0  0
   26.1200   25.9200   33.6900 C   0  0  0  0  0  0  0  0  0  0  0  0
   25.6300   25.1100   32.9400 O   0  0  0  0  0  0  0  0  0  0  0  0
   27.5200   26.3800   33.4600 C   0  0  0  0  0  0  0  0  0  0  0  0
   28.1600   26.6300   34.6100 N   0  0  0  0  0  0  0  0  0  0  0  0
   29.4800   26.8500   34.5700 N   0  0  0  0  0  0  0  0  0  0  0  0
   30.1900   26.7800   33.4400 C   0  0  0  0  0  0  0  0  0  0  0  0
   31.5600   27.0500   33.5000 C   0  0  0  0  0  0  0  0  0  0  0  0
   32.2700   27.2400   32.3100 C   0  0  0  0  0  0  0  0  0  0  0  0
   31.6100   27.2500   31.0800 C   0  0  0  0  0  0  0  0  0  0  0  0
   30.2700   26.8700   31.0600 C   0  0  0  0  0  0  0  0  0  0  0  0
   29.5100   26.6900   32.2300 C   0  0  0  0  0  0  0  0  0  0  0  0
   28.1400   26.4100   32.2000 C   0  0  0  0  0  0  0  0  0  0  0  0
   27.4300   26.1300   31.0500 N   0  0  0  0  0  0  0  0  0  0  0  0
   23.9126   26.0159   34.8826 C   0  0  0  0  0  0  0  0  0  0  0  0
   23.2173   25.7867   33.8017 N   0  0  0  0  0  0  0  0  0  0  0  0
   21.8252   25.5305   33.5795 C   0  0  0  0  0  0  0  0  0  0  0  0
   20.8550   26.1922   34.1936 C   0  0  0  0  0  0  0  0  0  0  0  0
   19.3859   26.4275   33.9970 C   0  0  0  0  0  0  0  0  0  0  0  0
   19.2612   27.3252   35.0513 O   0  0  0  0  0  0  0  0  0  0  0  0
   20.6123   27.1362   35.3309 C   0  0  1  0  0  0  0  0  0  0  0  0
   20.7742   26.4403   36.6795 C   0  0  0  0  0  0  0  0  0  0  0  0
   22.1939   26.1062   36.9828 C   0  0  0  0  0  0  0  0  0  0  0  0
   23.3704   25.9470   36.2590 C   0  0  0  0  0  0  0  0  0  0  0  0
   24.0196   25.6895   37.5076 C   0  0  0  0  0  0  0  0  0  0  0  0
   22.8489   25.7937   38.2553 N   0  0  0  0  0  0  0  0  0  0  0  0
   22.4572   25.6701   39.6488 C   0  0  0  0  0  0  0  0  0  0  0  0
  1  2  1  0
  2  3  2  0
  2  4  1  0
  4  5  2  0
  5  6  1  0
  6  7  2  0
  7  8  1  0
  8  9  2  0
  9 10  1  0
 10 11  2  0
 11 12  1  0
 12 13  2  0
 13 14  1  0
  1 15  1  0
 15 16  2  0
 16 17  1  0
 17 18  2  0
 18 19  1  0
 19 20  1  0
 20 21  1  0
 21 22  1  1
 22 23  1  0
 23 24  2  0
 24 25  1  0
 25 26  1  0
 26 27  1  0
 13  4  1  0
 24 15  1  0
 12  7  1  0
 21 18  1  0
 26 23  1  0
M  END
>  <AAScore>  (1) 
366.20907851275336

>  <RootName>  (1) 
./4ZLY/04_DeltaGEst/trajectory_03/rank_00/lead_0117

$$$$
