confid_1
     RDKit          3D

 29 33  0  0  0  0  0  0  0  0999 V2000
   24.2000   26.2400   35.6900 N   0  0  0  0  0  0  0  0  0  0  0  0
   24.8500   26.2800   34.4800 C   0  0  0  0  0  0  0  0  0  0  0  0
   24.3100   25.7400   33.5400 O   0  0  0  0  0  0  0  0  0  0  0  0
   26.1800   26.9700   34.4700 C   0  0  0  0  0  0  0  0  0  0  0  0
   26.6500   27.6000   35.5500 N   0  0  0  0  0  0  0  0  0  0  0  0
   27.7900   28.2700   35.6200 N   0  0  0  0  0  0  0  0  0  0  0  0
   28.5400   28.3000   34.5100 C   0  0  0  0  0  0  0  0  0  0  0  0
   29.7700   28.9400   34.5600 C   0  0  0  0  0  0  0  0  0  0  0  0
   30.7000   28.8900   33.5000 C   0  0  0  0  0  0  0  0  0  0  0  0
   30.3700   28.1400   32.3700 C   0  0  0  0  0  0  0  0  0  0  0  0
   29.1200   27.5200   32.2800 C   0  0  0  0  0  0  0  0  0  0  0  0
   28.2100   27.6100   33.3300 C   0  0  0  0  0  0  0  0  0  0  0  0
   26.9700   26.9700   33.3100 C   0  0  0  0  0  0  0  0  0  0  0  0
   26.5300   26.2400   32.2200 N   0  0  0  0  0  0  0  0  0  0  0  0
   30.1342   29.6704   35.7437 N   0  0  0  0  0  0  0  0  0  0  0  0
   29.4523   30.9286   36.0684 C   0  0  0  0  0  0  0  0  0  0  0  0
   29.1486   31.0299   37.5797 C   0  0  0  0  0  0  0  0  0  0  0  0
   29.9025   30.0434   38.3870 N   0  0  0  0  0  0  0  0  0  0  0  0
   29.8593   30.4045   39.8171 C   0  0  0  0  0  0  0  0  0  0  0  0
   30.1545   29.2061   40.6676 C   0  0  0  0  0  0  0  0  0  0  0  0
   29.5531   27.9502   40.5506 C   0  0  0  0  0  0  0  0  0  0  0  0
   30.0621   27.2288   41.6082 C   0  0  0  0  0  0  0  0  0  0  0  0
   29.7387   25.9226   42.2085 C   0  0  0  0  0  0  0  0  0  0  0  0
   30.5945   25.9513   43.5055 C   0  0  0  0  0  0  0  0  0  0  0  0
   31.2923   27.3363   43.5611 C   0  0  0  0  0  0  0  0  0  0  0  0
   30.8878   27.9560   42.3253 N   0  0  0  0  0  0  0  0  0  0  0  0
   30.9624   29.1874   41.8012 C   0  0  0  0  0  0  0  0  0  0  0  0
   31.2916   29.9252   37.9050 C   0  0  0  0  0  0  0  0  0  0  0  0
   31.2832   29.2296   36.5425 C   0  0  0  0  0  0  0  0  0  0  0  0
  1  2  1  0
  2  3  2  0
  2  4  1  0
  4  5  2  0
  5  6  1  0
  6  7  2  0
  7  8  1  0
  8  9  2  0
  9 10  1  0
 10 11  2  0
 11 12  1  0
 12 13  2  0
 13 14  1  0
  8 15  1  0
 15 16  1  0
 16 17  1  0
 17 18  1  0
 18 19  1  0
 19 20  1  0
 20 21  1  0
 21 22  2  0
 22 23  1  0
 23 24  1  0
 24 25  1  0
 25 26  1  0
 26 27  1  0
 18 28  1  0
 28 29  1  0
 13  4  1  0
 29 15  1  0
 12  7  1  0
 27 20  2  0
 26 22  1  0
M  END
>  <AAScore>  (1) 
-8.55166338759781

>  <RootName>  (1) 
./4ZLY/04_DeltaGEst/trajectory_04/rank_01/lead_0188

$$$$
