confid_8
     RDKit          3D

 27 30  0  0  0  0  0  0  0  0999 V2000
   24.6900   26.1200   35.5300 N   0  0  0  0  0  0  0  0  0  0  0  0
   25.6600   25.6700   34.6600 C   0  0  0  0  0  0  0  0  0  0  0  0
   25.2400   25.0100   33.7200 O   0  0  0  0  0  0  0  0  0  0  0  0
   27.0300   26.2200   34.8800 C   0  0  0  0  0  0  0  0  0  0  0  0
   27.3500   26.7300   36.0700 N   0  0  0  0  0  0  0  0  0  0  0  0
   28.5700   27.1800   36.3300 N   0  0  0  0  0  0  0  0  0  0  0  0
   29.5300   27.1100   35.3900 C   0  0  0  0  0  0  0  0  0  0  0  0
   30.8300   27.5700   35.6500 C   0  0  0  0  0  0  0  0  0  0  0  0
   31.8500   27.5400   34.6900 C   0  0  0  0  0  0  0  0  0  0  0  0
   31.5100   27.1200   33.4000 C   0  0  0  0  0  0  0  0  0  0  0  0
   30.2200   26.6300   33.1100 C   0  0  0  0  0  0  0  0  0  0  0  0
   29.2400   26.6600   34.1000 C   0  0  0  0  0  0  0  0  0  0  0  0
   27.9300   26.2600   33.8100 C   0  0  0  0  0  0  0  0  0  0  0  0
   27.5200   25.7100   32.6100 N   0  0  0  0  0  0  0  0  0  0  0  0
   31.1841   28.0735   37.0009 C   0  0  0  0  0  0  0  0  0  0  0  0
   31.7675   29.3411   37.1574 C   0  0  0  0  0  0  0  0  0  0  0  0
   32.1061   29.7975   38.4313 C   0  0  0  0  0  0  0  0  0  0  0  0
   32.6685   31.0630   38.6159 O   0  0  0  0  0  0  0  0  0  0  0  0
   33.1536   31.4628   39.9000 C   0  0  0  0  0  0  0  0  0  0  0  0
   32.2617   30.9684   40.9796 N   0  0  0  0  0  0  0  0  0  0  0  0
   32.2438   29.4822   40.9106 C   0  0  0  0  0  0  0  0  0  0  0  0
   31.8490   28.9887   39.5434 C   0  0  0  0  0  0  0  0  0  0  0  0
   31.3054   27.7539   39.3767 N   0  0  0  0  0  0  0  0  0  0  0  0
   30.9694   27.2845   38.1451 C   0  0  0  0  0  0  0  0  0  0  0  0
   30.8930   31.5750   40.9351 C   0  0  0  0  0  0  0  0  0  0  0  0
   30.0321   31.0993   42.1239 C   0  0  0  0  0  0  0  0  0  0  0  0
   30.9526   33.1164   40.9758 C   0  0  0  0  0  0  0  0  0  0  0  0
  1  2  1  0
  2  3  2  0
  2  4  1  0
  4  5  2  0
  5  6  1  0
  6  7  2  0
  7  8  1  0
  8  9  2  0
  9 10  1  0
 10 11  2  0
 11 12  1  0
 12 13  2  0
 13 14  1  0
  8 15  1  0
 15 16  2  0
 16 17  1  0
 17 18  1  0
 18 19  1  0
 19 20  1  0
 20 21  1  0
 21 22  1  0
 22 23  1  0
 23 24  2  0
 20 25  1  0
 25 26  1  0
 25 27  1  0
 13  4  1  0
 24 15  1  0
 12  7  1  0
 22 17  2  0
M  END
>  <AAScore>  (1) 
129.07126345091274

>  <RootName>  (1) 
./4ZLY/04_DeltaGEst/trajectory_02/rank_01/lead_0066

$$$$
