confid_9
     RDKit          3D

 27 30  0  0  0  0  0  0  0  0999 V2000
   24.5700   26.8800   35.5900 N   0  0  0  0  0  0  0  0  0  0  0  0
   25.5000   26.4000   34.6900 C   0  0  0  0  0  0  0  0  0  0  0  0
   25.1700   25.5200   33.9100 O   0  0  0  0  0  0  0  0  0  0  0  0
   26.8400   27.0200   34.7400 C   0  0  0  0  0  0  0  0  0  0  0  0
   27.3800   27.2800   35.9400 N   0  0  0  0  0  0  0  0  0  0  0  0
   28.6200   27.7400   36.0300 N   0  0  0  0  0  0  0  0  0  0  0  0
   29.3800   28.0000   34.9600 C   0  0  0  0  0  0  0  0  0  0  0  0
   30.6700   28.5000   35.1300 C   0  0  0  0  0  0  0  0  0  0  0  0
   31.5400   28.6100   34.0300 C   0  0  0  0  0  0  0  0  0  0  0  0
   31.0900   28.2200   32.7700 C   0  0  0  0  0  0  0  0  0  0  0  0
   29.8000   27.7000   32.6000 C   0  0  0  0  0  0  0  0  0  0  0  0
   28.9600   27.5500   33.7100 C   0  0  0  0  0  0  0  0  0  0  0  0
   27.6600   27.0300   33.5900 C   0  0  0  0  0  0  0  0  0  0  0  0
   27.1600   26.7400   32.3400 N   0  0  0  0  0  0  0  0  0  0  0  0
   23.1464   26.7938   35.4057 C   0  0  0  0  0  0  0  0  0  0  0  0
   22.3427   26.7218   36.5011 N   0  0  0  0  0  0  0  0  0  0  0  0
   20.9887   26.6654   36.4051 C   0  0  0  0  0  0  0  0  0  0  0  0
   20.3676   26.6836   35.1488 C   0  0  0  0  0  0  0  0  0  0  0  0
   18.8557   26.6876   35.0420 C   0  0  2  0  0  0  0  0  0  0  0  0
   18.4024   26.0260   33.7260 C   0  0  0  0  0  0  0  0  0  0  0  0
   19.1026   26.6123   32.5754 N   0  0  0  0  0  0  0  0  0  0  0  0
   18.3882   26.9165   31.3340 C   0  0  0  0  0  0  0  0  0  0  0  0
   20.5183   26.8456   32.6714 C   0  0  0  0  0  0  0  0  0  0  0  0
   21.1916   27.1105   31.6376 O   0  0  0  0  0  0  0  0  0  0  0  0
   21.1698   26.7929   33.9971 C   0  0  0  0  0  0  0  0  0  0  0  0
   22.5649   26.8532   34.1278 C   0  0  0  0  0  0  0  0  0  0  0  0
   18.3208   28.1208   35.1520 C   0  0  0  0  0  0  0  0  0  0  0  0
  1  2  1  0
  2  3  2  0
  2  4  1  0
  4  5  2  0
  5  6  1  0
  6  7  2  0
  7  8  1  0
  8  9  2  0
  9 10  1  0
 10 11  2  0
 11 12  1  0
 12 13  2  0
 13 14  1  0
  1 15  1  0
 15 16  2  0
 16 17  1  0
 17 18  2  0
 18 19  1  0
 19 20  1  0
 20 21  1  0
 21 22  1  0
 21 23  1  0
 23 24  2  0
 23 25  1  0
 25 26  2  0
 19 27  1  6
 13  4  1  0
 26 15  1  0
 12  7  1  0
 25 18  1  0
M  END
>  <AAScore>  (1) 
123.58557805490216

>  <RootName>  (1) 
./4ZLY/04_DeltaGEst/trajectory_05/rank_00/lead_0371

$$$$
