confid_9
     RDKit          3D

 27 30  0  0  0  0  0  0  0  0999 V2000
   24.5700   26.8800   35.5900 N   0  0  0  0  0  0  0  0  0  0  0  0
   25.5000   26.4000   34.6900 C   0  0  0  0  0  0  0  0  0  0  0  0
   25.1700   25.5200   33.9100 O   0  0  0  0  0  0  0  0  0  0  0  0
   26.8400   27.0200   34.7400 C   0  0  0  0  0  0  0  0  0  0  0  0
   27.3800   27.2800   35.9400 N   0  0  0  0  0  0  0  0  0  0  0  0
   28.6200   27.7400   36.0300 N   0  0  0  0  0  0  0  0  0  0  0  0
   29.3800   28.0000   34.9600 C   0  0  0  0  0  0  0  0  0  0  0  0
   30.6700   28.5000   35.1300 C   0  0  0  0  0  0  0  0  0  0  0  0
   31.5400   28.6100   34.0300 C   0  0  0  0  0  0  0  0  0  0  0  0
   31.0900   28.2200   32.7700 C   0  0  0  0  0  0  0  0  0  0  0  0
   29.8000   27.7000   32.6000 C   0  0  0  0  0  0  0  0  0  0  0  0
   28.9600   27.5500   33.7100 C   0  0  0  0  0  0  0  0  0  0  0  0
   27.6600   27.0300   33.5900 C   0  0  0  0  0  0  0  0  0  0  0  0
   27.1600   26.7400   32.3400 N   0  0  0  0  0  0  0  0  0  0  0  0
   32.8681   29.1336   34.2020 N   0  0  0  0  0  0  0  0  0  0  0  0
   34.0192   28.2875   33.8332 C   0  0  0  0  0  0  0  0  0  0  0  0
   35.3293   29.0780   33.6892 C   0  0  0  0  0  0  0  0  0  0  0  0
   35.2763   30.1212   32.5574 C   0  0  0  0  0  0  0  0  0  0  0  0
   33.9630   30.8033   32.4532 N   0  0  0  0  0  0  0  0  0  0  0  0
   33.5966   31.4798   33.7188 C   0  0  0  0  0  0  0  0  0  0  0  0
   33.0441   30.4848   34.7633 C   0  0  0  0  0  0  0  0  0  0  0  0
   33.9627   31.7557   31.3218 C   0  0  0  0  0  0  0  0  0  0  0  0
   33.8566   31.0178   30.0185 C   0  0  0  0  0  0  0  0  0  0  0  0
   32.7047   30.3159   29.6313 C   0  0  0  0  0  0  0  0  0  0  0  0
   32.8308   29.6768   28.4065 C   0  0  0  0  0  0  0  0  0  0  0  0
   34.3736   29.9843   27.8150 S   0  0  0  0  0  0  0  0  0  0  0  0
   34.8979   30.9306   29.1005 C   0  0  0  0  0  0  0  0  0  0  0  0
  1  2  1  0
  2  3  2  0
  2  4  1  0
  4  5  2  0
  5  6  1  0
  6  7  2  0
  7  8  1  0
  8  9  2  0
  9 10  1  0
 10 11  2  0
 11 12  1  0
 12 13  2  0
 13 14  1  0
  9 15  1  0
 15 16  1  0
 16 17  1  0
 17 18  1  0
 18 19  1  0
 19 20  1  0
 20 21  1  0
 19 22  1  0
 22 23  1  0
 23 24  1  0
 24 25  2  0
 25 26  1  0
 26 27  1  0
 13  4  1  0
 21 15  1  0
 27 23  2  0
 12  7  1  0
M  END
>  <AAScore>  (1) 
-6.028292857864456

>  <RootName>  (1) 
./4ZLY/04_DeltaGEst/trajectory_05/rank_01/lead_0461

$$$$
