confid_9
     RDKit          3D

 27 30  0  0  0  0  0  0  0  0999 V2000
   25.3300   26.2600   34.7600 N   0  0  0  0  0  0  0  0  0  0  0  0
   26.1200   25.9200   33.6900 C   0  0  0  0  0  0  0  0  0  0  0  0
   25.6300   25.1100   32.9400 O   0  0  0  0  0  0  0  0  0  0  0  0
   27.5200   26.3800   33.4600 C   0  0  0  0  0  0  0  0  0  0  0  0
   28.1600   26.6300   34.6100 N   0  0  0  0  0  0  0  0  0  0  0  0
   29.4800   26.8500   34.5700 N   0  0  0  0  0  0  0  0  0  0  0  0
   30.1900   26.7800   33.4400 C   0  0  0  0  0  0  0  0  0  0  0  0
   31.5600   27.0500   33.5000 C   0  0  0  0  0  0  0  0  0  0  0  0
   32.2700   27.2400   32.3100 C   0  0  0  0  0  0  0  0  0  0  0  0
   31.6100   27.2500   31.0800 C   0  0  0  0  0  0  0  0  0  0  0  0
   30.2700   26.8700   31.0600 C   0  0  0  0  0  0  0  0  0  0  0  0
   29.5100   26.6900   32.2300 C   0  0  0  0  0  0  0  0  0  0  0  0
   28.1400   26.4100   32.2000 C   0  0  0  0  0  0  0  0  0  0  0  0
   27.4300   26.1300   31.0500 N   0  0  0  0  0  0  0  0  0  0  0  0
   26.5089   27.1284   30.4982 C   0  0  0  0  0  0  0  0  0  0  0  0
   26.6699   27.1994   28.9760 C   0  0  0  0  0  0  0  0  0  0  0  0
   26.7090   25.8618   28.3561 N   0  0  0  0  0  0  0  0  0  0  0  0
   26.7645   25.7858   26.9102 C   0  0  0  0  0  0  0  0  0  0  0  0
   26.9425   26.8418   26.2433 O   0  0  0  0  0  0  0  0  0  0  0  0
   26.6487   24.4946   26.1380 C   0  0  0  0  0  0  0  0  0  0  0  0
   27.9250   23.9529   25.5871 N   0  0  0  0  0  0  0  0  0  0  0  0
   28.6501   23.1711   26.5986 C   0  0  0  0  0  0  0  0  0  0  0  0
   27.8489   23.2151   24.3136 C   0  0  0  0  0  0  0  0  0  0  0  0
   25.3956   24.4519   25.2437 C   0  0  0  0  0  0  0  0  0  0  0  0
   25.5062   23.5249   26.4445 C   0  0  0  0  0  0  0  0  0  0  0  0
   26.6296   24.6689   29.2170 C   0  0  0  0  0  0  0  0  0  0  0  0
   27.5754   24.8142   30.4126 C   0  0  0  0  0  0  0  0  0  0  0  0
  1  2  1  0
  2  3  2  0
  2  4  1  0
  4  5  2  0
  5  6  1  0
  6  7  2  0
  7  8  1  0
  8  9  2  0
  9 10  1  0
 10 11  2  0
 11 12  1  0
 12 13  2  0
 13 14  1  0
 14 15  1  0
 15 16  1  0
 16 17  1  0
 17 18  1  0
 18 19  2  0
 18 20  1  0
 20 21  1  0
 21 22  1  0
 21 23  1  0
 20 24  1  0
 24 25  1  0
 17 26  1  0
 26 27  1  0
 13  4  1  0
 27 14  1  0
 12  7  1  0
 25 20  1  0
M  END
>  <AAScore>  (1) 
9.64848978198873

>  <RootName>  (1) 
./4ZLY/04_DeltaGEst/trajectory_03/rank_01/lead_0082

$$$$
