confid_16
     RDKit          3D

 27 30  0  0  0  0  0  0  0  0999 V2000
   24.6900   26.1200   35.5300 N   0  0  0  0  0  0  0  0  0  0  0  0
   25.6600   25.6700   34.6600 C   0  0  0  0  0  0  0  0  0  0  0  0
   25.2400   25.0100   33.7200 O   0  0  0  0  0  0  0  0  0  0  0  0
   27.0300   26.2200   34.8800 C   0  0  0  0  0  0  0  0  0  0  0  0
   27.3500   26.7300   36.0700 N   0  0  0  0  0  0  0  0  0  0  0  0
   28.5700   27.1800   36.3300 N   0  0  0  0  0  0  0  0  0  0  0  0
   29.5300   27.1100   35.3900 C   0  0  0  0  0  0  0  0  0  0  0  0
   30.8300   27.5700   35.6500 C   0  0  0  0  0  0  0  0  0  0  0  0
   31.8500   27.5400   34.6900 C   0  0  0  0  0  0  0  0  0  0  0  0
   31.5100   27.1200   33.4000 C   0  0  0  0  0  0  0  0  0  0  0  0
   30.2200   26.6300   33.1100 C   0  0  0  0  0  0  0  0  0  0  0  0
   29.2400   26.6600   34.1000 C   0  0  0  0  0  0  0  0  0  0  0  0
   27.9300   26.2600   33.8100 C   0  0  0  0  0  0  0  0  0  0  0  0
   27.5200   25.7100   32.6100 N   0  0  0  0  0  0  0  0  0  0  0  0
   31.1478   28.0794   36.9556 N   0  0  0  0  0  0  0  0  0  0  0  0
   31.3160   29.5222   37.1471 C   0  0  0  0  0  0  0  0  0  0  0  0
   29.9746   30.1840   37.4858 C   0  0  0  0  0  0  0  0  0  0  0  0
   29.0716   29.4401   38.4615 C   0  0  0  0  0  0  0  0  0  0  0  0
   27.7066   29.7549   38.5923 C   0  0  0  0  0  0  0  0  0  0  0  0
   27.0109   28.6810   39.6837 S   0  0  0  0  0  0  0  0  0  0  0  0
   28.3985   27.8170   40.0339 C   0  0  0  0  0  0  0  0  0  0  0  0
   29.4517   28.3493   39.2961 C   0  0  0  0  0  0  0  0  0  0  0  0
   30.8385   27.7723   39.4073 C   0  0  0  0  0  0  0  0  0  0  0  0
   31.3051   27.1526   38.0828 C   0  0  0  0  0  0  0  0  0  0  0  0
   26.9530   30.8338   37.9126 C   0  0  0  0  0  0  0  0  0  0  0  0
   27.5611   31.7786   37.3429 O   0  0  0  0  0  0  0  0  0  0  0  0
   25.4563   30.8468   37.9339 C   0  0  0  0  0  0  0  0  0  0  0  0
  1  2  1  0
  2  3  2  0
  2  4  1  0
  4  5  2  0
  5  6  1  0
  6  7  2  0
  7  8  1  0
  8  9  2  0
  9 10  1  0
 10 11  2  0
 11 12  1  0
 12 13  2  0
 13 14  1  0
  8 15  1  0
 15 16  1  0
 16 17  1  0
 17 18  1  0
 18 19  2  0
 19 20  1  0
 20 21  1  0
 21 22  2  0
 22 23  1  0
 23 24  1  0
 19 25  1  0
 25 26  2  0
 25 27  1  0
 13  4  1  0
 24 15  1  0
 12  7  1  0
 22 18  1  0
M  END
>  <AAScore>  (1) 
-5.567110873013029

>  <RootName>  (1) 
./4ZLY/04_DeltaGEst/trajectory_02/rank_01/lead_0136

$$$$
