confid_11
     RDKit          3D

 30 34  0  0  0  0  0  0  0  0999 V2000
   24.5500   26.3900   36.2500 N   0  0  0  0  0  0  0  0  0  0  0  0
   25.6000   26.1300   35.4000 C   0  0  0  0  0  0  0  0  0  0  0  0
   25.4300   25.4300   34.4200 O   0  0  0  0  0  0  0  0  0  0  0  0
   26.9800   26.6300   35.7100 C   0  0  0  0  0  0  0  0  0  0  0  0
   27.3200   26.8200   36.9800 N   0  0  0  0  0  0  0  0  0  0  0  0
   28.4700   27.4000   37.3100 N   0  0  0  0  0  0  0  0  0  0  0  0
   29.4000   27.6300   36.3700 C   0  0  0  0  0  0  0  0  0  0  0  0
   30.6600   28.0500   36.8000 C   0  0  0  0  0  0  0  0  0  0  0  0
   31.5700   28.3600   35.7800 C   0  0  0  0  0  0  0  0  0  0  0  0
   31.3700   28.1000   34.4300 C   0  0  0  0  0  0  0  0  0  0  0  0
   30.1200   27.5900   34.0500 C   0  0  0  0  0  0  0  0  0  0  0  0
   29.1500   27.3400   35.0300 C   0  0  0  0  0  0  0  0  0  0  0  0
   27.8800   26.8900   34.6600 C   0  0  0  0  0  0  0  0  0  0  0  0
   27.4800   26.6100   33.3700 N   0  0  0  0  0  0  0  0  0  0  0  0
   23.7443   25.3577   36.9353 C   0  0  0  0  0  0  0  0  0  0  0  0
   23.3753   24.1561   36.0414 C   0  0  0  0  0  0  0  0  0  0  0  0
   22.3900   24.5710   34.9430 C   0  0  0  0  0  0  0  0  0  0  0  0
   21.1555   25.1189   35.5455 N   0  0  0  0  0  0  0  0  0  0  0  0
   20.1662   25.4539   34.4990 C   0  0  0  0  0  0  0  0  0  0  0  0
   19.5879   24.2059   33.8916 C   0  0  0  0  0  0  0  0  0  0  0  0
   19.0034   23.1620   34.5839 C   0  0  0  0  0  0  0  0  0  0  0  0
   18.5183   22.2607   33.7086 N   0  0  0  0  0  0  0  0  0  0  0  0
   18.7654   22.7061   32.4862 N   0  0  0  0  0  0  0  0  0  0  0  0
   19.4389   23.8774   32.5532 C   0  0  0  0  0  0  0  0  0  0  0  0
   19.8085   24.7348   31.3701 C   0  0  0  0  0  0  0  0  0  0  0  0
   21.2861   25.0868   31.2734 C   0  0  0  0  0  0  0  0  0  0  0  0
   20.6920   24.0647   30.3257 C   0  0  0  0  0  0  0  0  0  0  0  0
   18.3713   21.9815   31.2822 C   0  0  0  0  0  0  0  0  0  0  0  0
   21.4716   26.3235   36.3428 C   0  0  0  0  0  0  0  0  0  0  0  0
   22.4447   25.9806   37.4824 C   0  0  0  0  0  0  0  0  0  0  0  0
  1  2  1  0
  2  3  2  0
  2  4  1  0
  4  5  2  0
  5  6  1  0
  6  7  2  0
  7  8  1  0
  8  9  2  0
  9 10  1  0
 10 11  2  0
 11 12  1  0
 12 13  2  0
 13 14  1  0
  1 15  1  0
 15 16  1  0
 16 17  1  0
 17 18  1  0
 18 19  1  0
 19 20  1  0
 20 21  1  0
 21 22  2  0
 22 23  1  0
 23 24  1  0
 24 25  1  0
 25 26  1  0
 26 27  1  0
 23 28  1  0
 18 29  1  0
 29 30  1  0
 13  4  1  0
 30 15  1  0
 12  7  1  0
 24 20  2  0
 27 25  1  0
M  END
>  <AAScore>  (1) 
251.58965682174093

>  <RootName>  (1) 
./4ZLY/04_DeltaGEst/trajectory_01/rank_00/lead_0383

$$$$
