confid_1
     RDKit          3D

 28 31  0  0  0  0  0  0  0  0999 V2000
   24.5700   26.8800   35.5900 N   0  0  0  0  0  0  0  0  0  0  0  0
   25.5000   26.4000   34.6900 C   0  0  0  0  0  0  0  0  0  0  0  0
   25.1700   25.5200   33.9100 O   0  0  0  0  0  0  0  0  0  0  0  0
   26.8400   27.0200   34.7400 C   0  0  0  0  0  0  0  0  0  0  0  0
   27.3800   27.2800   35.9400 N   0  0  0  0  0  0  0  0  0  0  0  0
   28.6200   27.7400   36.0300 N   0  0  0  0  0  0  0  0  0  0  0  0
   29.3800   28.0000   34.9600 C   0  0  0  0  0  0  0  0  0  0  0  0
   30.6700   28.5000   35.1300 C   0  0  0  0  0  0  0  0  0  0  0  0
   31.5400   28.6100   34.0300 C   0  0  0  0  0  0  0  0  0  0  0  0
   31.0900   28.2200   32.7700 C   0  0  0  0  0  0  0  0  0  0  0  0
   29.8000   27.7000   32.6000 C   0  0  0  0  0  0  0  0  0  0  0  0
   28.9600   27.5500   33.7100 C   0  0  0  0  0  0  0  0  0  0  0  0
   27.6600   27.0300   33.5900 C   0  0  0  0  0  0  0  0  0  0  0  0
   27.1600   26.7400   32.3400 N   0  0  0  0  0  0  0  0  0  0  0  0
   23.1570   26.6186   35.5210 C   0  0  0  0  0  0  0  0  0  0  0  0
   22.4527   26.5109   36.6746 N   0  0  0  0  0  0  0  0  0  0  0  0
   21.1137   26.2962   36.6881 C   0  0  0  0  0  0  0  0  0  0  0  0
   20.3858   26.1902   35.4893 C   0  0  0  0  0  0  0  0  0  0  0  0
   18.8969   25.8825   35.6025 C   0  0  0  0  0  0  0  0  0  0  0  0
   18.0395   26.6839   34.7040 N   0  0  0  0  0  0  0  0  0  0  0  0
   18.2990   28.1353   34.7845 C   0  0  0  0  0  0  0  0  0  0  0  0
   17.8807   26.0838   33.3529 C   0  0  1  0  0  0  0  0  0  0  0  0
   17.2247   27.0218   32.3271 C   0  0  0  0  0  0  0  0  0  0  0  0
   19.1716   25.5133   32.8112 C   0  0  0  0  0  0  0  0  0  0  0  0
   19.1735   24.3965   32.3130 O   0  0  0  0  0  0  0  0  0  0  0  0
   20.4513   26.2885   32.8831 C   0  0  0  0  0  0  0  0  0  0  0  0
   21.0962   26.2943   34.2573 C   0  0  0  0  0  0  0  0  0  0  0  0
   22.4801   26.5401   34.2959 C   0  0  0  0  0  0  0  0  0  0  0  0
  1  2  1  0
  2  3  2  0
  2  4  1  0
  4  5  2  0
  5  6  1  0
  6  7  2  0
  7  8  1  0
  8  9  2  0
  9 10  1  0
 10 11  2  0
 11 12  1  0
 12 13  2  0
 13 14  1  0
  1 15  1  0
 15 16  2  0
 16 17  1  0
 17 18  2  0
 18 19  1  0
 19 20  1  0
 20 21  1  0
 20 22  1  0
 22 23  1  6
 22 24  1  0
 24 25  2  0
 24 26  1  0
 26 27  1  0
 27 28  2  0
 13  4  1  0
 28 15  1  0
 12  7  1  0
 27 18  1  0
M  END
>  <AAScore>  (1) 
2598.0897252890563

>  <RootName>  (1) 
./4ZLY/04_DeltaGEst/trajectory_05/rank_00/lead_0014

$$$$
