confid_15
     RDKit          3D

 26 28  0  0  0  0  0  0  0  0999 V2000
   24.5700   26.8800   35.5900 N   0  0  0  0  0  0  0  0  0  0  0  0
   25.5000   26.4000   34.6900 C   0  0  0  0  0  0  0  0  0  0  0  0
   25.1700   25.5200   33.9100 O   0  0  0  0  0  0  0  0  0  0  0  0
   26.8400   27.0200   34.7400 C   0  0  0  0  0  0  0  0  0  0  0  0
   27.3800   27.2800   35.9400 N   0  0  0  0  0  0  0  0  0  0  0  0
   28.6200   27.7400   36.0300 N   0  0  0  0  0  0  0  0  0  0  0  0
   29.3800   28.0000   34.9600 C   0  0  0  0  0  0  0  0  0  0  0  0
   30.6700   28.5000   35.1300 C   0  0  0  0  0  0  0  0  0  0  0  0
   31.5400   28.6100   34.0300 C   0  0  0  0  0  0  0  0  0  0  0  0
   31.0900   28.2200   32.7700 C   0  0  0  0  0  0  0  0  0  0  0  0
   29.8000   27.7000   32.6000 C   0  0  0  0  0  0  0  0  0  0  0  0
   28.9600   27.5500   33.7100 C   0  0  0  0  0  0  0  0  0  0  0  0
   27.6600   27.0300   33.5900 C   0  0  0  0  0  0  0  0  0  0  0  0
   27.1600   26.7400   32.3400 N   0  0  0  0  0  0  0  0  0  0  0  0
   33.1617   29.2717   34.2233 S   0  0  0  0  0  6  0  0  0  0  0  0
   34.1649   28.1963   33.9157 O   0  0  0  0  0  0  0  0  0  0  0  0
   33.3651   29.7272   35.6417 O   0  0  0  0  0  0  0  0  0  0  0  0
   33.4355   30.6647   33.1271 C   0  0  0  0  0  0  0  0  0  0  0  0
   32.2497   31.6401   33.0754 C   0  0  0  0  0  0  0  0  0  0  0  0
   31.9013   32.2073   34.4288 C   0  0  0  0  0  0  0  0  0  0  0  0
   32.7903   33.0727   35.0860 C   0  0  0  0  0  0  0  0  0  0  0  0
   32.4770   33.5756   36.3514 C   0  0  0  0  0  0  0  0  0  0  0  0
   31.2785   33.2160   36.9733 C   0  0  0  0  0  0  0  0  0  0  0  0
   30.3842   32.3456   36.3323 C   0  0  0  0  0  0  0  0  0  0  0  0
   30.6885   31.8653   35.0500 C   0  0  0  0  0  0  0  0  0  0  0  0
   29.0826   31.9805   36.9823 C   0  0  0  0  0  0  0  0  0  0  0  0
  1  2  1  0
  2  3  2  0
  2  4  1  0
  4  5  2  0
  5  6  1  0
  6  7  2  0
  7  8  1  0
  8  9  2  0
  9 10  1  0
 10 11  2  0
 11 12  1  0
 12 13  2  0
 13 14  1  0
  9 15  1  0
 15 16  2  0
 15 17  2  0
 15 18  1  0
 18 19  1  0
 19 20  1  0
 20 21  2  0
 21 22  1  0
 22 23  2  0
 23 24  1  0
 24 25  2  0
 24 26  1  0
 13  4  1  0
 25 20  1  0
 12  7  1  0
M  END
>  <AAScore>  (1) 
-6.097633174001285

>  <RootName>  (1) 
./4ZLY/04_DeltaGEst/trajectory_05/rank_01/lead_0267

$$$$
