confid_18
     RDKit          3D

 28 31  0  0  0  0  0  0  0  0999 V2000
   24.6900   26.1200   35.5300 N   0  0  0  0  0  0  0  0  0  0  0  0
   25.6600   25.6700   34.6600 C   0  0  0  0  0  0  0  0  0  0  0  0
   25.2400   25.0100   33.7200 O   0  0  0  0  0  0  0  0  0  0  0  0
   27.0300   26.2200   34.8800 C   0  0  0  0  0  0  0  0  0  0  0  0
   27.3500   26.7300   36.0700 N   0  0  0  0  0  0  0  0  0  0  0  0
   28.5700   27.1800   36.3300 N   0  0  0  0  0  0  0  0  0  0  0  0
   29.5300   27.1100   35.3900 C   0  0  0  0  0  0  0  0  0  0  0  0
   30.8300   27.5700   35.6500 C   0  0  0  0  0  0  0  0  0  0  0  0
   31.8500   27.5400   34.6900 C   0  0  0  0  0  0  0  0  0  0  0  0
   31.5100   27.1200   33.4000 C   0  0  0  0  0  0  0  0  0  0  0  0
   30.2200   26.6300   33.1100 C   0  0  0  0  0  0  0  0  0  0  0  0
   29.2400   26.6600   34.1000 C   0  0  0  0  0  0  0  0  0  0  0  0
   27.9300   26.2600   33.8100 C   0  0  0  0  0  0  0  0  0  0  0  0
   27.5200   25.7100   32.6100 N   0  0  0  0  0  0  0  0  0  0  0  0
   23.2681   26.0567   35.2738 C   0  0  0  0  0  0  0  0  0  0  0  0
   22.8172   26.1051   33.9936 N   0  0  0  0  0  0  0  0  0  0  0  0
   21.5008   26.0880   33.6789 C   0  0  0  0  0  0  0  0  0  0  0  0
   20.5193   26.0596   34.6815 C   0  0  0  0  0  0  0  0  0  0  0  0
   19.0827   25.8213   34.2335 C   0  0  0  0  0  0  0  0  0  0  0  0
   17.9388   26.5968   34.9219 C   0  0  0  0  0  0  0  0  0  0  0  0
   18.2043   28.0285   35.2040 N   0  0  0  0  0  0  0  0  0  0  0  0
   18.5025   28.8024   33.9889 C   0  0  0  0  0  0  0  0  0  0  0  0
   19.1600   28.3269   36.2966 C   0  0  0  0  0  0  0  0  0  0  0  0
   19.2552   27.2135   37.3082 C   0  0  0  0  0  0  0  0  0  0  0  0
   20.0249   26.1810   37.1264 N   0  0  0  0  0  0  0  0  0  0  0  0
   20.9502   26.0455   36.0349 C   0  0  0  0  0  0  0  0  0  0  0  0
   22.3339   25.9982   36.3328 C   0  0  0  0  0  0  0  0  0  0  0  0
   22.8076   25.9487   37.7676 C   0  0  0  0  0  0  0  0  0  0  0  0
  1  2  1  0
  2  3  2  0
  2  4  1  0
  4  5  2  0
  5  6  1  0
  6  7  2  0
  7  8  1  0
  8  9  2  0
  9 10  1  0
 10 11  2  0
 11 12  1  0
 12 13  2  0
 13 14  1  0
  1 15  1  0
 15 16  2  0
 16 17  1  0
 17 18  2  0
 18 19  1  0
 19 20  1  0
 20 21  1  0
 21 22  1  0
 21 23  1  0
 23 24  1  0
 24 25  2  0
 25 26  1  0
 26 27  2  0
 27 28  1  0
 13  4  1  0
 27 15  1  0
 12  7  1  0
 26 18  1  0
M  END
>  <AAScore>  (1) 
537.180274274715

>  <RootName>  (1) 
./4ZLY/04_DeltaGEst/trajectory_02/rank_00/lead_0340

$$$$
