confid_13
     RDKit          3D

 26 28  0  0  0  0  0  0  0  0999 V2000
   24.5700   26.8800   35.5900 N   0  0  0  0  0  0  0  0  0  0  0  0
   25.5000   26.4000   34.6900 C   0  0  0  0  0  0  0  0  0  0  0  0
   25.1700   25.5200   33.9100 O   0  0  0  0  0  0  0  0  0  0  0  0
   26.8400   27.0200   34.7400 C   0  0  0  0  0  0  0  0  0  0  0  0
   27.3800   27.2800   35.9400 N   0  0  0  0  0  0  0  0  0  0  0  0
   28.6200   27.7400   36.0300 N   0  0  0  0  0  0  0  0  0  0  0  0
   29.3800   28.0000   34.9600 C   0  0  0  0  0  0  0  0  0  0  0  0
   30.6700   28.5000   35.1300 C   0  0  0  0  0  0  0  0  0  0  0  0
   31.5400   28.6100   34.0300 C   0  0  0  0  0  0  0  0  0  0  0  0
   31.0900   28.2200   32.7700 C   0  0  0  0  0  0  0  0  0  0  0  0
   29.8000   27.7000   32.6000 C   0  0  0  0  0  0  0  0  0  0  0  0
   28.9600   27.5500   33.7100 C   0  0  0  0  0  0  0  0  0  0  0  0
   27.6600   27.0300   33.5900 C   0  0  0  0  0  0  0  0  0  0  0  0
   27.1600   26.7400   32.3400 N   0  0  0  0  0  0  0  0  0  0  0  0
   33.1410   29.3165   34.2288 S   0  0  0  0  0  6  0  0  0  0  0  0
   34.0593   28.8049   33.1541 O   0  0  0  0  0  0  0  0  0  0  0  0
   33.7027   28.9236   35.5663 O   0  0  0  0  0  0  0  0  0  0  0  0
   33.0333   31.0960   34.1276 C   0  0  0  0  0  0  0  0  0  0  0  0
   32.2304   31.5011   32.9224 C   0  0  0  0  0  0  0  0  0  0  0  0
   30.8535   31.7331   33.0380 C   0  0  0  0  0  0  0  0  0  0  0  0
   30.0912   32.0313   31.9084 C   0  0  0  0  0  0  0  0  0  0  0  0
   30.6890   32.0978   30.6392 C   0  0  0  0  0  0  0  0  0  0  0  0
   29.8377   32.4180   29.4387 C   0  0  0  0  0  0  0  0  0  0  0  0
   32.0807   31.8710   30.5144 C   0  0  0  0  0  0  0  0  0  0  0  0
   32.8358   31.5640   31.6594 C   0  0  0  0  0  0  0  0  0  0  0  0
   32.7627   31.9189   29.1723 C   0  0  0  0  0  0  0  0  0  0  0  0
  1  2  1  0
  2  3  2  0
  2  4  1  0
  4  5  2  0
  5  6  1  0
  6  7  2  0
  7  8  1  0
  8  9  2  0
  9 10  1  0
 10 11  2  0
 11 12  1  0
 12 13  2  0
 13 14  1  0
  9 15  1  0
 15 16  2  0
 15 17  2  0
 15 18  1  0
 18 19  1  0
 19 20  2  0
 20 21  1  0
 21 22  2  0
 22 23  1  0
 22 24  1  0
 24 25  2  0
 24 26  1  0
 13  4  1  0
 25 19  1  0
 12  7  1  0
M  END
>  <AAScore>  (1) 
-6.471916641264829

>  <RootName>  (1) 
./4ZLY/04_DeltaGEst/trajectory_05/rank_01/lead_0122

$$$$
