confid_16
     RDKit          3D

 27 30  0  0  0  0  0  0  0  0999 V2000
   24.6900   26.1200   35.5300 N   0  0  0  0  0  0  0  0  0  0  0  0
   25.6600   25.6700   34.6600 C   0  0  0  0  0  0  0  0  0  0  0  0
   25.2400   25.0100   33.7200 O   0  0  0  0  0  0  0  0  0  0  0  0
   27.0300   26.2200   34.8800 C   0  0  0  0  0  0  0  0  0  0  0  0
   27.3500   26.7300   36.0700 N   0  0  0  0  0  0  0  0  0  0  0  0
   28.5700   27.1800   36.3300 N   0  0  0  0  0  0  0  0  0  0  0  0
   29.5300   27.1100   35.3900 C   0  0  0  0  0  0  0  0  0  0  0  0
   30.8300   27.5700   35.6500 C   0  0  0  0  0  0  0  0  0  0  0  0
   31.8500   27.5400   34.6900 C   0  0  0  0  0  0  0  0  0  0  0  0
   31.5100   27.1200   33.4000 C   0  0  0  0  0  0  0  0  0  0  0  0
   30.2200   26.6300   33.1100 C   0  0  0  0  0  0  0  0  0  0  0  0
   29.2400   26.6600   34.1000 C   0  0  0  0  0  0  0  0  0  0  0  0
   27.9300   26.2600   33.8100 C   0  0  0  0  0  0  0  0  0  0  0  0
   27.5200   25.7100   32.6100 N   0  0  0  0  0  0  0  0  0  0  0  0
   23.3156   26.3566   35.1764 C   0  0  0  0  0  0  0  0  0  0  0  0
   22.9177   26.3672   33.8768 N   0  0  0  0  0  0  0  0  0  0  0  0
   21.6266   26.6121   33.5432 C   0  0  0  0  0  0  0  0  0  0  0  0
   20.6753   26.8508   34.5362 C   0  0  0  0  0  0  0  0  0  0  0  0
   19.3556   27.0830   34.1508 O   0  0  0  0  0  0  0  0  0  0  0  0
   18.2675   26.2558   34.5540 C   0  0  0  0  0  0  0  0  0  0  0  0
   18.1313   26.1509   36.0787 C   0  0  0  0  0  0  0  0  0  0  0  0
   18.7058   27.3657   36.8249 C   0  0  0  0  0  0  0  0  0  0  0  0
   18.0895   27.4456   38.0628 F   0  0  0  0  0  0  0  0  0  0  0  0
   18.4299   28.5433   36.1467 F   0  0  0  0  0  0  0  0  0  0  0  0
   20.2209   27.2329   37.0625 C   0  0  0  0  0  0  0  0  0  0  0  0
   21.0999   26.8704   35.8830 C   0  0  0  0  0  0  0  0  0  0  0  0
   22.4109   26.6241   36.1543 N   0  0  0  0  0  0  0  0  0  0  0  0
  1  2  1  0
  2  3  2  0
  2  4  1  0
  4  5  2  0
  5  6  1  0
  6  7  2  0
  7  8  1  0
  8  9  2  0
  9 10  1  0
 10 11  2  0
 11 12  1  0
 12 13  2  0
 13 14  1  0
  1 15  1  0
 15 16  2  0
 16 17  1  0
 17 18  2  0
 18 19  1  0
 19 20  1  0
 20 21  1  0
 21 22  1  0
 22 23  1  0
 22 24  1  0
 22 25  1  0
 25 26  1  0
 26 27  2  0
 13  4  1  0
 27 15  1  0
 12  7  1  0
 26 18  1  0
M  END
>  <AAScore>  (1) 
1067.659750281582

>  <RootName>  (1) 
./4ZLY/04_DeltaGEst/trajectory_02/rank_00/lead_0322

$$$$
