confid_19
     RDKit          3D

 26 28  0  0  0  0  0  0  0  0999 V2000
   24.5700   26.8800   35.5900 N   0  0  0  0  0  0  0  0  0  0  0  0
   25.5000   26.4000   34.6900 C   0  0  0  0  0  0  0  0  0  0  0  0
   25.1700   25.5200   33.9100 O   0  0  0  0  0  0  0  0  0  0  0  0
   26.8400   27.0200   34.7400 C   0  0  0  0  0  0  0  0  0  0  0  0
   27.3800   27.2800   35.9400 N   0  0  0  0  0  0  0  0  0  0  0  0
   28.6200   27.7400   36.0300 N   0  0  0  0  0  0  0  0  0  0  0  0
   29.3800   28.0000   34.9600 C   0  0  0  0  0  0  0  0  0  0  0  0
   30.6700   28.5000   35.1300 C   0  0  0  0  0  0  0  0  0  0  0  0
   31.5400   28.6100   34.0300 C   0  0  0  0  0  0  0  0  0  0  0  0
   31.0900   28.2200   32.7700 C   0  0  0  0  0  0  0  0  0  0  0  0
   29.8000   27.7000   32.6000 C   0  0  0  0  0  0  0  0  0  0  0  0
   28.9600   27.5500   33.7100 C   0  0  0  0  0  0  0  0  0  0  0  0
   27.6600   27.0300   33.5900 C   0  0  0  0  0  0  0  0  0  0  0  0
   27.1600   26.7400   32.3400 N   0  0  0  0  0  0  0  0  0  0  0  0
   33.1575   29.2762   34.2286 S   0  0  0  0  0  6  0  0  0  0  0  0
   34.1068   28.5505   33.3164 O   0  0  0  0  0  0  0  0  0  0  0  0
   33.6144   29.0822   35.6480 O   0  0  0  0  0  0  0  0  0  0  0  0
   33.1320   31.0229   33.8146 C   0  0  2  0  0  0  0  0  0  0  0  0
   34.5440   31.6410   33.8883 C   0  0  1  0  0  0  0  0  0  0  0  0
   34.5247   33.1114   33.3915 C   0  0  0  0  0  0  0  0  0  0  0  0
   33.1593   33.8124   33.5585 C   0  0  2  0  0  0  0  0  0  0  0  0
   33.3479   35.1798   33.6643 F   0  0  0  0  0  0  0  0  0  0  0  0
   32.4108   33.3002   34.7931 C   0  0  0  0  0  0  0  0  0  0  0  0
   32.1245   31.7869   34.7072 C   0  0  0  0  0  0  0  0  0  0  0  0
   35.0016   31.5971   35.2323 O   0  0  0  0  0  0  0  0  0  0  0  0
   36.3769   31.2866   35.2815 C   0  0  0  0  0  0  0  0  0  0  0  0
  1  2  1  0
  2  3  2  0
  2  4  1  0
  4  5  2  0
  5  6  1  0
  6  7  2  0
  7  8  1  0
  8  9  2  0
  9 10  1  0
 10 11  2  0
 11 12  1  0
 12 13  2  0
 13 14  1  0
  9 15  1  0
 15 16  2  0
 15 17  2  0
 18 15  1  1
 18 19  1  0
 19 20  1  0
 20 21  1  0
 21 22  1  1
 21 23  1  0
 23 24  1  0
 19 25  1  1
 25 26  1  0
 13  4  1  0
 24 18  1  0
 12  7  1  0
M  END
>  <AAScore>  (1) 
-5.9975535475548325

>  <RootName>  (1) 
./4ZLY/04_DeltaGEst/trajectory_05/rank_01/lead_0017

$$$$
