confid_12
     RDKit          3D

 29 32  0  0  0  0  0  0  0  0999 V2000
   24.5700   26.8800   35.5900 N   0  0  0  0  0  0  0  0  0  0  0  0
   25.5000   26.4000   34.6900 C   0  0  0  0  0  0  0  0  0  0  0  0
   25.1700   25.5200   33.9100 O   0  0  0  0  0  0  0  0  0  0  0  0
   26.8400   27.0200   34.7400 C   0  0  0  0  0  0  0  0  0  0  0  0
   27.3800   27.2800   35.9400 N   0  0  0  0  0  0  0  0  0  0  0  0
   28.6200   27.7400   36.0300 N   0  0  0  0  0  0  0  0  0  0  0  0
   29.3800   28.0000   34.9600 C   0  0  0  0  0  0  0  0  0  0  0  0
   30.6700   28.5000   35.1300 C   0  0  0  0  0  0  0  0  0  0  0  0
   31.5400   28.6100   34.0300 C   0  0  0  0  0  0  0  0  0  0  0  0
   31.0900   28.2200   32.7700 C   0  0  0  0  0  0  0  0  0  0  0  0
   29.8000   27.7000   32.6000 C   0  0  0  0  0  0  0  0  0  0  0  0
   28.9600   27.5500   33.7100 C   0  0  0  0  0  0  0  0  0  0  0  0
   27.6600   27.0300   33.5900 C   0  0  0  0  0  0  0  0  0  0  0  0
   27.1600   26.7400   32.3400 N   0  0  0  0  0  0  0  0  0  0  0  0
   23.3902   26.1682   36.0141 C   0  0  0  0  0  0  0  0  0  0  0  0
   23.2545   24.8960   35.6718 N   0  0  0  0  0  0  0  0  0  0  0  0
   22.2520   23.9171   36.0361 C   0  0  0  0  0  0  0  0  0  0  0  0
   21.3990   23.3009   35.1518 C   0  0  0  0  0  0  0  0  0  0  0  0
   20.7027   22.0404   35.6010 C   0  0  0  0  0  0  0  0  0  0  0  0
   19.8955   21.4427   34.5239 N   0  0  0  0  0  0  0  0  0  0  0  0
   20.6360   21.4054   33.2524 C   0  0  0  0  0  0  0  0  0  0  0  0
   20.9894   22.8181   32.7349 C   0  0  0  0  0  0  0  0  0  0  0  0
   21.0403   23.8055   33.8226 N   0  0  0  0  0  0  0  0  0  0  0  0
   20.2656   25.0717   33.6451 C   0  0  0  0  0  0  0  0  0  0  0  0
   20.9475   26.0820   34.5069 C   0  0  0  0  0  0  0  0  0  0  0  0
   20.5369   27.3888   34.7345 O   0  0  0  0  0  0  0  0  0  0  0  0
   21.4998   27.9689   35.6507 C   0  0  0  0  0  0  0  0  0  0  0  0
   22.2825   27.0132   36.6749 C   0  0  0  0  0  0  0  0  0  0  0  0
   18.7696   22.1789   34.3571 F   0  0  0  0  0  0  0  0  0  0  0  0
  1  2  1  0
  2  3  2  0
  2  4  1  0
  4  5  2  0
  5  6  1  0
  6  7  2  0
  7  8  1  0
  8  9  2  0
  9 10  1  0
 10 11  2  0
 11 12  1  0
 12 13  2  0
 13 14  1  0
  1 15  1  0
 15 16  2  0
 16 17  1  0
 17 18  2  0
 18 19  1  0
 19 20  1  0
 20 21  1  0
 21 22  1  0
 22 23  1  0
 23 24  1  0
 24 25  1  0
 25 26  1  0
 26 27  1  0
 27 28  1  0
 20 29  1  0
 13  4  1  0
 28 15  1  0
 12  7  1  0
 23 18  1  0
M  END
>  <AAScore>  (1) 
11475.502699836878

>  <RootName>  (1) 
./4ZLY/04_DeltaGEst/trajectory_05/rank_00/lead_0339

$$$$
