confid_6
     RDKit          3D

 28 31  0  0  0  0  0  0  0  0999 V2000
   24.2000   26.2400   35.6900 N   0  0  0  0  0  0  0  0  0  0  0  0
   24.8500   26.2800   34.4800 C   0  0  0  0  0  0  0  0  0  0  0  0
   24.3100   25.7400   33.5400 O   0  0  0  0  0  0  0  0  0  0  0  0
   26.1800   26.9700   34.4700 C   0  0  0  0  0  0  0  0  0  0  0  0
   26.6500   27.6000   35.5500 N   0  0  0  0  0  0  0  0  0  0  0  0
   27.7900   28.2700   35.6200 N   0  0  0  0  0  0  0  0  0  0  0  0
   28.5400   28.3000   34.5100 C   0  0  0  0  0  0  0  0  0  0  0  0
   29.7700   28.9400   34.5600 C   0  0  0  0  0  0  0  0  0  0  0  0
   30.7000   28.8900   33.5000 C   0  0  0  0  0  0  0  0  0  0  0  0
   30.3700   28.1400   32.3700 C   0  0  0  0  0  0  0  0  0  0  0  0
   29.1200   27.5200   32.2800 C   0  0  0  0  0  0  0  0  0  0  0  0
   28.2100   27.6100   33.3300 C   0  0  0  0  0  0  0  0  0  0  0  0
   26.9700   26.9700   33.3100 C   0  0  0  0  0  0  0  0  0  0  0  0
   26.5300   26.2400   32.2200 N   0  0  0  0  0  0  0  0  0  0  0  0
   30.1503   29.6453   35.7520 N   0  0  0  0  0  0  0  0  0  0  0  0
   30.6118   28.8652   36.9405 C   0  0  0  0  0  0  0  0  0  0  0  0
   30.4154   29.6062   38.3023 C   0  0  0  0  0  0  0  0  0  0  0  0
   30.6620   31.0529   38.0832 C   0  0  0  0  0  0  0  0  0  0  0  0
   30.8911   32.2272   38.6958 C   0  0  0  0  0  0  0  0  0  0  0  0
   31.0444   32.6542   40.1127 C   0  0  0  0  0  0  0  0  0  0  0  0
   30.8675   32.9156   37.4357 N   0  0  0  0  0  0  0  0  0  0  0  0
   30.6043   31.6796   36.8177 C   0  0  0  0  0  0  0  0  0  0  0  0
   30.3611   31.0758   35.6759 C   0  0  0  0  0  0  0  0  0  0  0  0
   30.9968   34.2974   37.0018 C   0  0  0  0  0  0  0  0  0  0  0  0
   32.0126   34.3905   35.9075 C   0  0  0  0  0  0  0  0  0  0  0  0
   33.2393   34.4054   36.2016 O   0  0  0  0  0  0  0  0  0  0  0  0
   31.5971   34.4083   34.5369 N   0  0  0  0  0  0  0  0  0  0  0  0
   32.5600   34.4047   33.4433 C   0  0  0  0  0  0  0  0  0  0  0  0
  1  2  1  0
  2  3  2  0
  2  4  1  0
  4  5  2  0
  5  6  1  0
  6  7  2  0
  7  8  1  0
  8  9  2  0
  9 10  1  0
 10 11  2  0
 11 12  1  0
 12 13  2  0
 13 14  1  0
  8 15  1  0
 15 16  1  0
 16 17  1  0
 17 18  1  0
 18 19  2  0
 19 20  1  0
 19 21  1  0
 21 22  1  0
 22 23  2  0
 21 24  1  0
 24 25  1  0
 25 26  2  0
 25 27  1  0
 27 28  1  0
 13  4  1  0
 23 15  1  0
 12  7  1  0
 22 18  1  0
M  END
>  <AAScore>  (1) 
-7.477803105031636

>  <RootName>  (1) 
./4ZLY/04_DeltaGEst/trajectory_04/rank_01/lead_0429

$$$$
