confid_2
     RDKit          3D

 29 32  0  0  0  0  0  0  0  0999 V2000
   24.2000   26.2400   35.6900 N   0  0  0  0  0  0  0  0  0  0  0  0
   24.8500   26.2800   34.4800 C   0  0  0  0  0  0  0  0  0  0  0  0
   24.3100   25.7400   33.5400 O   0  0  0  0  0  0  0  0  0  0  0  0
   26.1800   26.9700   34.4700 C   0  0  0  0  0  0  0  0  0  0  0  0
   26.6500   27.6000   35.5500 N   0  0  0  0  0  0  0  0  0  0  0  0
   27.7900   28.2700   35.6200 N   0  0  0  0  0  0  0  0  0  0  0  0
   28.5400   28.3000   34.5100 C   0  0  0  0  0  0  0  0  0  0  0  0
   29.7700   28.9400   34.5600 C   0  0  0  0  0  0  0  0  0  0  0  0
   30.7000   28.8900   33.5000 C   0  0  0  0  0  0  0  0  0  0  0  0
   30.3700   28.1400   32.3700 C   0  0  0  0  0  0  0  0  0  0  0  0
   29.1200   27.5200   32.2800 C   0  0  0  0  0  0  0  0  0  0  0  0
   28.2100   27.6100   33.3300 C   0  0  0  0  0  0  0  0  0  0  0  0
   26.9700   26.9700   33.3100 C   0  0  0  0  0  0  0  0  0  0  0  0
   26.5300   26.2400   32.2200 N   0  0  0  0  0  0  0  0  0  0  0  0
   22.7784   26.0803   35.8503 C   0  0  0  0  0  0  0  0  0  0  0  0
   22.3040   25.4977   36.9852 N   0  0  0  0  0  0  0  0  0  0  0  0
   20.9753   25.3222   37.2093 C   0  0  0  0  0  0  0  0  0  0  0  0
   20.0357   25.7593   36.2657 C   0  0  0  0  0  0  0  0  0  0  0  0
   18.5695   25.5211   36.4887 C   0  0  0  0  0  0  0  0  0  0  0  0
   17.7487   26.6275   35.8349 C   0  0  0  0  0  0  0  0  0  0  0  0
   18.1178   26.7562   34.4213 N   0  0  0  0  0  0  0  0  0  0  0  0
   17.0997   26.8963   33.4131 C   0  0  0  0  0  0  0  0  0  0  0  0
   17.2544   26.3334   32.2949 O   0  0  0  0  0  0  0  0  0  0  0  0
   15.9098   27.6672   33.6551 N   0  0  0  0  0  0  0  0  0  0  0  0
   15.9377   28.8549   34.5079 C   0  0  0  0  0  0  0  0  0  0  0  0
   14.6533   27.2649   33.0255 C   0  0  0  0  0  0  0  0  0  0  0  0
   19.5309   26.8471   34.0178 C   0  0  0  0  0  0  0  0  0  0  0  0
   20.4904   26.3822   35.0887 C   0  0  0  0  0  0  0  0  0  0  0  0
   21.8674   26.5509   34.8886 C   0  0  0  0  0  0  0  0  0  0  0  0
  1  2  1  0
  2  3  2  0
  2  4  1  0
  4  5  2  0
  5  6  1  0
  6  7  2  0
  7  8  1  0
  8  9  2  0
  9 10  1  0
 10 11  2  0
 11 12  1  0
 12 13  2  0
 13 14  1  0
  1 15  1  0
 15 16  2  0
 16 17  1  0
 17 18  2  0
 18 19  1  0
 19 20  1  0
 20 21  1  0
 21 22  1  0
 22 23  2  0
 22 24  1  0
 24 25  1  0
 24 26  1  0
 21 27  1  0
 27 28  1  0
 28 29  2  0
 13  4  1  0
 29 15  1  0
 12  7  1  0
 28 18  1  0
M  END
>  <AAScore>  (1) 
891.4400043951138

>  <RootName>  (1) 
./4ZLY/04_DeltaGEst/trajectory_04/rank_00/lead_0111

$$$$
