confid_12
     RDKit          3D

 30 33  0  0  0  0  0  0  0  0999 V2000
   24.2000   26.2400   35.6900 N   0  0  0  0  0  0  0  0  0  0  0  0
   24.8500   26.2800   34.4800 C   0  0  0  0  0  0  0  0  0  0  0  0
   24.3100   25.7400   33.5400 O   0  0  0  0  0  0  0  0  0  0  0  0
   26.1800   26.9700   34.4700 C   0  0  0  0  0  0  0  0  0  0  0  0
   26.6500   27.6000   35.5500 N   0  0  0  0  0  0  0  0  0  0  0  0
   27.7900   28.2700   35.6200 N   0  0  0  0  0  0  0  0  0  0  0  0
   28.5400   28.3000   34.5100 C   0  0  0  0  0  0  0  0  0  0  0  0
   29.7700   28.9400   34.5600 C   0  0  0  0  0  0  0  0  0  0  0  0
   30.7000   28.8900   33.5000 C   0  0  0  0  0  0  0  0  0  0  0  0
   30.3700   28.1400   32.3700 C   0  0  0  0  0  0  0  0  0  0  0  0
   29.1200   27.5200   32.2800 C   0  0  0  0  0  0  0  0  0  0  0  0
   28.2100   27.6100   33.3300 C   0  0  0  0  0  0  0  0  0  0  0  0
   26.9700   26.9700   33.3100 C   0  0  0  0  0  0  0  0  0  0  0  0
   26.5300   26.2400   32.2200 N   0  0  0  0  0  0  0  0  0  0  0  0
   30.1351   29.6778   35.7428 N   0  0  0  0  0  0  0  0  0  0  0  0
   31.3804   29.3625   36.4472 C   0  0  0  0  0  0  0  0  0  0  0  0
   31.2106   29.5596   37.9567 C   0  0  0  0  0  0  0  0  0  0  0  0
   30.6553   30.9338   38.2907 C   0  0  0  0  0  0  0  0  0  0  0  0
   30.9423   31.5725   39.5277 C   0  0  0  0  0  0  0  0  0  0  0  0
   31.8575   30.9521   40.5626 C   0  0  0  0  0  0  0  0  0  0  0  0
   31.3026   29.6749   41.0566 N   0  0  0  0  0  0  0  0  0  0  0  0
   32.3469   28.9049   41.7498 C   0  0  0  0  0  0  0  0  0  0  0  0
   30.1731   29.9132   41.9718 C   0  0  0  0  0  0  0  0  0  0  0  0
   30.3470   32.8119   39.8177 C   0  0  0  0  0  0  0  0  0  0  0  0
   29.4649   33.4080   38.9177 C   0  0  0  0  0  0  0  0  0  0  0  0
   29.1587   32.7744   37.7151 C   0  0  0  0  0  0  0  0  0  0  0  0
   29.7407   31.5382   37.3957 C   0  0  0  0  0  0  0  0  0  0  0  0
   29.4102   30.8605   36.1228 C   0  0  0  0  0  0  0  0  0  0  0  0
   28.5038   31.3176   35.3726 O   0  0  0  0  0  0  0  0  0  0  0  0
   28.7316   34.9543   39.3038 Cl  0  0  0  0  0  0  0  0  0  0  0  0
  1  2  1  0
  2  3  2  0
  2  4  1  0
  4  5  2  0
  5  6  1  0
  6  7  2  0
  7  8  1  0
  8  9  2  0
  9 10  1  0
 10 11  2  0
 11 12  1  0
 12 13  2  0
 13 14  1  0
  8 15  1  0
 15 16  1  0
 16 17  1  0
 17 18  1  0
 18 19  2  0
 19 20  1  0
 20 21  1  0
 21 22  1  0
 21 23  1  0
 19 24  1  0
 24 25  2  0
 25 26  1  0
 26 27  2  0
 27 28  1  0
 28 29  2  0
 25 30  1  0
 13  4  1  0
 28 15  1  0
 12  7  1  0
 27 18  1  0
M  END
>  <AAScore>  (1) 
-4.379105788398781

>  <RootName>  (1) 
./4ZLY/04_DeltaGEst/trajectory_04/rank_01/lead_0100

$$$$
