confid_12
     RDKit          3D

 29 32  0  0  0  0  0  0  0  0999 V2000
   24.6900   26.1200   35.5300 N   0  0  0  0  0  0  0  0  0  0  0  0
   25.6600   25.6700   34.6600 C   0  0  0  0  0  0  0  0  0  0  0  0
   25.2400   25.0100   33.7200 O   0  0  0  0  0  0  0  0  0  0  0  0
   27.0300   26.2200   34.8800 C   0  0  0  0  0  0  0  0  0  0  0  0
   27.3500   26.7300   36.0700 N   0  0  0  0  0  0  0  0  0  0  0  0
   28.5700   27.1800   36.3300 N   0  0  0  0  0  0  0  0  0  0  0  0
   29.5300   27.1100   35.3900 C   0  0  0  0  0  0  0  0  0  0  0  0
   30.8300   27.5700   35.6500 C   0  0  0  0  0  0  0  0  0  0  0  0
   31.8500   27.5400   34.6900 C   0  0  0  0  0  0  0  0  0  0  0  0
   31.5100   27.1200   33.4000 C   0  0  0  0  0  0  0  0  0  0  0  0
   30.2200   26.6300   33.1100 C   0  0  0  0  0  0  0  0  0  0  0  0
   29.2400   26.6600   34.1000 C   0  0  0  0  0  0  0  0  0  0  0  0
   27.9300   26.2600   33.8100 C   0  0  0  0  0  0  0  0  0  0  0  0
   27.5200   25.7100   32.6100 N   0  0  0  0  0  0  0  0  0  0  0  0
   31.1831   28.0744   37.0008 C   0  0  0  0  0  0  0  0  0  0  0  0
   31.7366   29.3537   37.1530 C   0  0  0  0  0  0  0  0  0  0  0  0
   32.0913   29.8491   38.4220 C   0  0  0  0  0  0  0  0  0  0  0  0
   32.6982   31.2400   38.4975 C   0  0  0  0  0  0  0  0  0  0  0  0
   31.6697   32.3224   38.8851 C   0  0  0  0  0  0  0  0  0  0  0  0
   31.7159   32.6050   40.3399 N   0  0  0  0  0  0  0  0  0  0  0  0
   32.7482   33.6144   40.6390 C   0  0  0  0  0  0  0  0  0  0  0  0
   30.4006   33.0597   40.8466 C   0  0  0  0  0  0  0  0  0  0  0  0
   29.4631   31.8794   41.1850 C   0  0  0  0  0  0  0  0  0  0  0  0
   29.9515   30.6455   40.6961 O   0  0  0  0  0  0  0  0  0  0  0  0
   30.7793   29.9861   41.6422 C   0  0  0  0  0  0  0  0  0  0  0  0
   32.0875   29.5235   40.9827 C   0  0  0  0  0  0  0  0  0  0  0  0
   31.8633   29.0356   39.5672 C   0  0  0  0  0  0  0  0  0  0  0  0
   31.3146   27.7530   39.3995 C   0  0  0  0  0  0  0  0  0  0  0  0
   30.9875   27.2739   38.1324 C   0  0  0  0  0  0  0  0  0  0  0  0
  1  2  1  0
  2  3  2  0
  2  4  1  0
  4  5  2  0
  5  6  1  0
  6  7  2  0
  7  8  1  0
  8  9  2  0
  9 10  1  0
 10 11  2  0
 11 12  1  0
 12 13  2  0
 13 14  1  0
  8 15  1  0
 15 16  2  0
 16 17  1  0
 17 18  1  0
 18 19  1  0
 19 20  1  0
 20 21  1  0
 20 22  1  0
 22 23  1  0
 23 24  1  0
 24 25  1  0
 25 26  1  0
 26 27  1  0
 27 28  1  0
 28 29  2  0
 13  4  1  0
 29 15  1  0
 12  7  1  0
 27 17  2  0
M  END
>  <AAScore>  (1) 
-0.5131948695992307

>  <RootName>  (1) 
./4ZLY/04_DeltaGEst/trajectory_02/rank_01/lead_0217

$$$$
