confid_1
     RDKit          3D

 31 35  0  0  0  0  0  0  0  0999 V2000
   24.5700   26.8800   35.5900 N   0  0  0  0  0  0  0  0  0  0  0  0
   25.5000   26.4000   34.6900 C   0  0  0  0  0  0  0  0  0  0  0  0
   25.1700   25.5200   33.9100 O   0  0  0  0  0  0  0  0  0  0  0  0
   26.8400   27.0200   34.7400 C   0  0  0  0  0  0  0  0  0  0  0  0
   27.3800   27.2800   35.9400 N   0  0  0  0  0  0  0  0  0  0  0  0
   28.6200   27.7400   36.0300 N   0  0  0  0  0  0  0  0  0  0  0  0
   29.3800   28.0000   34.9600 C   0  0  0  0  0  0  0  0  0  0  0  0
   30.6700   28.5000   35.1300 C   0  0  0  0  0  0  0  0  0  0  0  0
   31.5400   28.6100   34.0300 C   0  0  0  0  0  0  0  0  0  0  0  0
   31.0900   28.2200   32.7700 C   0  0  0  0  0  0  0  0  0  0  0  0
   29.8000   27.7000   32.6000 C   0  0  0  0  0  0  0  0  0  0  0  0
   28.9600   27.5500   33.7100 C   0  0  0  0  0  0  0  0  0  0  0  0
   27.6600   27.0300   33.5900 C   0  0  0  0  0  0  0  0  0  0  0  0
   27.1600   26.7400   32.3400 N   0  0  0  0  0  0  0  0  0  0  0  0
   23.2927   26.2383   35.7373 C   0  0  0  0  0  0  0  0  0  0  0  0
   22.7235   26.0849   36.8785 N   0  0  0  0  0  0  0  0  0  0  0  0
   22.8599   26.9248   38.0019 C   0  0  0  0  0  0  0  0  0  0  0  0
   21.7201   27.3632   38.5463 C   0  0  0  0  0  0  0  0  0  0  0  0
   20.3257   26.9149   38.1595 C   0  0  2  0  0  0  0  0  0  0  0  0
   20.0063   26.3634   36.7227 C   0  0  0  0  0  0  0  0  0  0  0  0
   20.5433   27.1334   35.5756 N   0  0  0  0  0  0  0  0  0  0  0  0
   19.8717   28.3978   35.2155 C   0  0  0  0  0  0  0  0  0  0  0  0
   19.6894   28.5627   33.6953 C   0  0  0  0  0  0  0  0  0  0  0  0
   19.4264   27.2801   33.0141 N   0  0  0  0  0  0  0  0  0  0  0  0
   18.1342   26.6901   33.3966 C   0  0  0  0  0  0  0  0  0  0  0  0
   20.5438   26.3176   33.1636 C   0  0  0  0  0  0  0  0  0  0  0  0
   21.2219   26.4222   34.5024 C   0  0  0  0  0  0  0  0  0  0  0  0
   22.4729   26.0390   34.5843 N   0  0  0  0  0  0  0  0  0  0  0  0
   19.4585   28.0868   38.6129 C   0  0  0  0  0  0  0  0  0  0  0  0
   20.1938   28.6908   39.8171 C   0  0  0  0  0  0  0  0  0  0  0  0
   21.6827   28.3883   39.6276 C   0  0  0  0  0  0  0  0  0  0  0  0
  1  2  1  0
  2  3  2  0
  2  4  1  0
  4  5  2  0
  5  6  1  0
  6  7  2  0
  7  8  1  0
  8  9  2  0
  9 10  1  0
 10 11  2  0
 11 12  1  0
 12 13  2  0
 13 14  1  0
  1 15  1  0
 15 16  2  0
 16 17  1  0
 17 18  2  0
 18 19  1  0
 19 20  1  6
 20 21  1  0
 21 22  1  0
 22 23  1  0
 23 24  1  0
 24 25  1  0
 24 26  1  0
 26 27  1  0
 27 28  2  0
 19 29  1  0
 29 30  1  0
 30 31  1  0
 13  4  1  0
 28 15  1  0
 12  7  1  0
 31 18  1  0
 27 21  1  0
M  END
>  <AAScore>  (1) 
1546.0608945869374

>  <RootName>  (1) 
./4ZLY/04_DeltaGEst/trajectory_05/rank_00/lead_0310

$$$$
