confid_1
     RDKit          3D

 28 31  0  0  0  0  0  0  0  0999 V2000
   24.5700   26.8800   35.5900 N   0  0  0  0  0  0  0  0  0  0  0  0
   25.5000   26.4000   34.6900 C   0  0  0  0  0  0  0  0  0  0  0  0
   25.1700   25.5200   33.9100 O   0  0  0  0  0  0  0  0  0  0  0  0
   26.8400   27.0200   34.7400 C   0  0  0  0  0  0  0  0  0  0  0  0
   27.3800   27.2800   35.9400 N   0  0  0  0  0  0  0  0  0  0  0  0
   28.6200   27.7400   36.0300 N   0  0  0  0  0  0  0  0  0  0  0  0
   29.3800   28.0000   34.9600 C   0  0  0  0  0  0  0  0  0  0  0  0
   30.6700   28.5000   35.1300 C   0  0  0  0  0  0  0  0  0  0  0  0
   31.5400   28.6100   34.0300 C   0  0  0  0  0  0  0  0  0  0  0  0
   31.0900   28.2200   32.7700 C   0  0  0  0  0  0  0  0  0  0  0  0
   29.8000   27.7000   32.6000 C   0  0  0  0  0  0  0  0  0  0  0  0
   28.9600   27.5500   33.7100 C   0  0  0  0  0  0  0  0  0  0  0  0
   27.6600   27.0300   33.5900 C   0  0  0  0  0  0  0  0  0  0  0  0
   27.1600   26.7400   32.3400 N   0  0  0  0  0  0  0  0  0  0  0  0
   33.1606   29.2736   34.2188 S   0  0  0  0  0  6  0  0  0  0  0  0
   34.1108   28.4116   33.4359 O   0  0  0  0  0  0  0  0  0  0  0  0
   33.5731   29.2159   35.6632 O   0  0  0  0  0  0  0  0  0  0  0  0
   33.3020   30.9615   33.6059 C   0  0  0  0  0  0  0  0  0  0  0  0
   32.3316   32.0120   34.2136 C   0  0  2  0  0  0  0  0  0  0  0  0
   32.3133   31.9842   35.7701 C   0  0  0  0  0  0  0  0  0  0  0  0
   31.5813   33.1531   36.4774 C   0  0  0  0  0  0  0  0  0  0  0  0
   31.6118   34.4563   35.6747 C   0  0  1  0  0  0  0  0  0  0  0  0
   30.3442   34.5964   34.9202 N   0  0  0  0  0  0  0  0  0  0  0  0
   30.5670   35.1397   33.5720 C   0  0  0  0  0  0  0  0  0  0  0  0
   29.9665   34.1647   32.5483 C   0  0  0  0  0  0  0  0  0  0  0  0
   30.7960   32.8823   32.3207 C   0  0  0  0  0  0  0  0  0  0  0  0
   30.9186   31.9561   33.5608 C   0  0  0  0  0  0  0  0  0  0  0  0
   30.6801   35.5295   36.0189 C   0  0  0  0  0  0  0  0  0  0  0  0
  1  2  1  0
  2  3  2  0
  2  4  1  0
  4  5  2  0
  5  6  1  0
  6  7  2  0
  7  8  1  0
  8  9  2  0
  9 10  1  0
 10 11  2  0
 11 12  1  0
 12 13  2  0
 13 14  1  0
  9 15  1  0
 15 16  2  0
 15 17  2  0
 15 18  1  0
 19 18  1  6
 19 20  1  0
 20 21  1  0
 22 21  1  1
 22 23  1  0
 23 24  1  0
 24 25  1  0
 25 26  1  0
 26 27  1  0
 22 28  1  0
 13  4  1  0
 27 19  1  0
 12  7  1  0
 28 23  1  0
M  END
>  <AAScore>  (1) 
226.12668012425613

>  <RootName>  (1) 
./4ZLY/04_DeltaGEst/trajectory_05/rank_01/lead_0180

$$$$
