confid_8
     RDKit          3D

 27 30  0  0  0  0  0  0  0  0999 V2000
   25.3300   26.2600   34.7600 N   0  0  0  0  0  0  0  0  0  0  0  0
   26.1200   25.9200   33.6900 C   0  0  0  0  0  0  0  0  0  0  0  0
   25.6300   25.1100   32.9400 O   0  0  0  0  0  0  0  0  0  0  0  0
   27.5200   26.3800   33.4600 C   0  0  0  0  0  0  0  0  0  0  0  0
   28.1600   26.6300   34.6100 N   0  0  0  0  0  0  0  0  0  0  0  0
   29.4800   26.8500   34.5700 N   0  0  0  0  0  0  0  0  0  0  0  0
   30.1900   26.7800   33.4400 C   0  0  0  0  0  0  0  0  0  0  0  0
   31.5600   27.0500   33.5000 C   0  0  0  0  0  0  0  0  0  0  0  0
   32.2700   27.2400   32.3100 C   0  0  0  0  0  0  0  0  0  0  0  0
   31.6100   27.2500   31.0800 C   0  0  0  0  0  0  0  0  0  0  0  0
   30.2700   26.8700   31.0600 C   0  0  0  0  0  0  0  0  0  0  0  0
   29.5100   26.6900   32.2300 C   0  0  0  0  0  0  0  0  0  0  0  0
   28.1400   26.4100   32.2000 C   0  0  0  0  0  0  0  0  0  0  0  0
   27.4300   26.1300   31.0500 N   0  0  0  0  0  0  0  0  0  0  0  0
   24.1882   25.5330   35.2497 C   0  0  0  0  0  0  0  0  0  0  0  0
   23.3903   26.0117   36.2228 N   0  0  0  0  0  0  0  0  0  0  0  0
   22.3908   25.1518   36.5742 C   0  0  0  0  0  0  0  0  0  0  0  0
   21.4547   25.5898   37.6670 C   0  0  0  0  0  0  0  0  0  0  0  0
   20.0780   25.1527   37.4444 N   0  0  0  0  0  0  0  0  0  0  0  0
   19.1546   25.9729   36.6587 C   0  0  0  0  0  0  0  0  0  0  0  0
   19.6223   23.9291   38.0333 C   0  0  0  0  0  0  0  0  0  0  0  0
   18.4050   23.7824   38.3284 O   0  0  0  0  0  0  0  0  0  0  0  0
   20.5630   22.7778   38.1840 C   0  0  0  0  0  0  0  0  0  0  0  0
   20.7893   22.1864   36.8369 C   0  0  0  0  0  0  0  0  0  0  0  0
   21.5391   22.7135   35.8590 C   0  0  0  0  0  0  0  0  0  0  0  0
   22.4193   23.9130   35.8781 C   0  0  0  0  0  0  0  0  0  0  0  0
   23.7100   23.9931   34.7962 S   0  0  0  0  0  0  0  0  0  0  0  0
  1  2  1  0
  2  3  2  0
  2  4  1  0
  4  5  2  0
  5  6  1  0
  6  7  2  0
  7  8  1  0
  8  9  2  0
  9 10  1  0
 10 11  2  0
 11 12  1  0
 12 13  2  0
 13 14  1  0
  1 15  1  0
 15 16  2  0
 16 17  1  0
 17 18  1  0
 18 19  1  0
 19 20  1  0
 19 21  1  0
 21 22  2  0
 21 23  1  0
 23 24  1  0
 24 25  2  0
 25 26  1  0
 26 27  1  0
 13  4  1  0
 27 15  1  0
 12  7  1  0
 26 17  2  0
M  END
>  <AAScore>  (1) 
3465.062276962325

>  <RootName>  (1) 
./4ZLY/04_DeltaGEst/trajectory_03/rank_00/lead_0030

$$$$
