confid_9
     RDKit          3D

 31 34  0  0  0  0  0  0  0  0999 V2000
   24.5500   26.3900   36.2500 N   0  0  0  0  0  0  0  0  0  0  0  0
   25.6000   26.1300   35.4000 C   0  0  0  0  0  0  0  0  0  0  0  0
   25.4300   25.4300   34.4200 O   0  0  0  0  0  0  0  0  0  0  0  0
   26.9800   26.6300   35.7100 C   0  0  0  0  0  0  0  0  0  0  0  0
   27.3200   26.8200   36.9800 N   0  0  0  0  0  0  0  0  0  0  0  0
   28.4700   27.4000   37.3100 N   0  0  0  0  0  0  0  0  0  0  0  0
   29.4000   27.6300   36.3700 C   0  0  0  0  0  0  0  0  0  0  0  0
   30.6600   28.0500   36.8000 C   0  0  0  0  0  0  0  0  0  0  0  0
   31.5700   28.3600   35.7800 C   0  0  0  0  0  0  0  0  0  0  0  0
   31.3700   28.1000   34.4300 C   0  0  0  0  0  0  0  0  0  0  0  0
   30.1200   27.5900   34.0500 C   0  0  0  0  0  0  0  0  0  0  0  0
   29.1500   27.3400   35.0300 C   0  0  0  0  0  0  0  0  0  0  0  0
   27.8800   26.8900   34.6600 C   0  0  0  0  0  0  0  0  0  0  0  0
   27.4800   26.6100   33.3700 N   0  0  0  0  0  0  0  0  0  0  0  0
   23.2969   25.6100   36.3772 C   0  0  0  0  0  0  0  0  0  0  0  0
   22.2650   26.4084   37.2050 C   0  0  0  0  0  0  0  0  0  0  0  0
   21.7821   27.6599   36.4526 C   0  0  0  0  0  0  0  0  0  0  0  0
   21.3497   27.3248   35.0909 N   0  0  0  0  0  0  0  0  0  0  0  0
   20.4031   28.1844   34.4401 C   0  0  0  0  0  0  0  0  0  0  0  0
   20.7717   29.3351   34.0766 O   0  0  0  0  0  0  0  0  0  0  0  0
   18.9945   27.7114   34.1170 C   0  0  0  0  0  0  0  0  0  0  0  0
   18.0066   28.8168   34.1999 N   0  0  0  0  0  0  0  0  0  0  0  0
   17.4300   29.1836   35.4762 C   0  0  0  0  0  0  0  0  0  0  0  0
   18.0129   28.8578   36.5480 O   0  0  0  0  0  0  0  0  0  0  0  0
   16.1695   29.9987   35.5524 C   0  0  0  0  0  0  0  0  0  0  0  0
   17.7903   29.7139   33.0545 C   0  0  0  0  0  0  0  0  0  0  0  0
   18.9186   26.9178   32.7975 C   0  0  0  0  0  0  0  0  0  0  0  0
   18.5705   25.6508   33.5650 C   0  0  0  0  0  0  0  0  0  0  0  0
   18.5460   26.4388   34.8663 C   0  0  0  0  0  0  0  0  0  0  0  0
   22.2401   26.5031   34.2636 C   0  0  0  0  0  0  0  0  0  0  0  0
   22.6329   25.2453   35.0323 C   0  0  0  0  0  0  0  0  0  0  0  0
  1  2  1  0
  2  3  2  0
  2  4  1  0
  4  5  2  0
  5  6  1  0
  6  7  2  0
  7  8  1  0
  8  9  2  0
  9 10  1  0
 10 11  2  0
 11 12  1  0
 12 13  2  0
 13 14  1  0
  1 15  1  0
 15 16  1  0
 16 17  1  0
 17 18  1  0
 18 19  1  0
 19 20  2  0
 19 21  1  0
 21 22  1  0
 22 23  1  0
 23 24  2  0
 23 25  1  0
 22 26  1  0
 21 27  1  0
 27 28  1  0
 28 29  1  0
 18 30  1  0
 30 31  1  0
 13  4  1  0
 31 15  1  0
 12  7  1  0
 29 21  1  0
M  END
>  <AAScore>  (1) 
2181.16719479252

>  <RootName>  (1) 
./4ZLY/04_DeltaGEst/trajectory_01/rank_00/lead_0038

$$$$
