confid_3
     RDKit          3D

 27 30  0  0  0  0  0  0  0  0999 V2000
   24.5500   26.3900   36.2500 N   0  0  0  0  0  0  0  0  0  0  0  0
   25.6000   26.1300   35.4000 C   0  0  0  0  0  0  0  0  0  0  0  0
   25.4300   25.4300   34.4200 O   0  0  0  0  0  0  0  0  0  0  0  0
   26.9800   26.6300   35.7100 C   0  0  0  0  0  0  0  0  0  0  0  0
   27.3200   26.8200   36.9800 N   0  0  0  0  0  0  0  0  0  0  0  0
   28.4700   27.4000   37.3100 N   0  0  0  0  0  0  0  0  0  0  0  0
   29.4000   27.6300   36.3700 C   0  0  0  0  0  0  0  0  0  0  0  0
   30.6600   28.0500   36.8000 C   0  0  0  0  0  0  0  0  0  0  0  0
   31.5700   28.3600   35.7800 C   0  0  0  0  0  0  0  0  0  0  0  0
   31.3700   28.1000   34.4300 C   0  0  0  0  0  0  0  0  0  0  0  0
   30.1200   27.5900   34.0500 C   0  0  0  0  0  0  0  0  0  0  0  0
   29.1500   27.3400   35.0300 C   0  0  0  0  0  0  0  0  0  0  0  0
   27.8800   26.8900   34.6600 C   0  0  0  0  0  0  0  0  0  0  0  0
   27.4800   26.6100   33.3700 N   0  0  0  0  0  0  0  0  0  0  0  0
   31.0068   28.3133   38.2181 C   0  0  0  0  0  0  0  0  0  0  0  0
   30.1678   29.1424   39.0159 C   0  0  0  0  0  0  0  0  0  0  0  0
   30.5810   29.3390   40.3166 C   0  0  0  0  0  0  0  0  0  0  0  0
   30.2830   29.9966   41.6226 C   0  0  0  0  0  0  0  0  0  0  0  0
   31.4999   29.4152   42.1742 C   0  0  1  0  0  0  0  0  0  0  0  0
   31.2258   28.4854   43.3053 N   0  0  0  0  0  0  0  0  0  0  0  0
   30.7288   27.1439   42.9364 C   0  0  0  0  0  0  0  0  0  0  0  0
   32.3388   28.4158   44.2753 C   0  0  0  0  0  0  0  0  0  0  0  0
   33.5872   27.8035   43.6982 C   0  0  0  0  0  0  0  0  0  0  0  0
   34.3180   28.4533   42.9681 O   0  0  0  0  0  0  0  0  0  0  0  0
   31.7663   28.7690   40.8467 C   0  0  0  0  0  0  0  0  0  0  0  0
   32.6105   27.9728   40.1004 C   0  0  0  0  0  0  0  0  0  0  0  0
   32.2131   27.7498   38.7598 C   0  0  0  0  0  0  0  0  0  0  0  0
  1  2  1  0
  2  3  2  0
  2  4  1  0
  4  5  2  0
  5  6  1  0
  6  7  2  0
  7  8  1  0
  8  9  2  0
  9 10  1  0
 10 11  2  0
 11 12  1  0
 12 13  2  0
 13 14  1  0
  8 15  1  0
 15 16  2  0
 16 17  1  0
 17 18  1  0
 18 19  1  0
 19 20  1  1
 20 21  1  0
 20 22  1  0
 22 23  1  0
 23 24  2  0
 19 25  1  0
 25 26  1  0
 26 27  2  0
 13  4  1  0
 27 15  1  0
 12  7  1  0
 25 17  2  0
M  END
>  <AAScore>  (1) 
296.8981932454661

>  <RootName>  (1) 
./4ZLY/04_DeltaGEst/trajectory_01/rank_01/lead_0310

$$$$
