confid_0
     RDKit          3D

 26 29  0  0  0  0  0  0  0  0999 V2000
   24.2000   26.2400   35.6900 N   0  0  0  0  0  0  0  0  0  0  0  0
   24.8500   26.2800   34.4800 C   0  0  0  0  0  0  0  0  0  0  0  0
   24.3100   25.7400   33.5400 O   0  0  0  0  0  0  0  0  0  0  0  0
   26.1800   26.9700   34.4700 C   0  0  0  0  0  0  0  0  0  0  0  0
   26.6500   27.6000   35.5500 N   0  0  0  0  0  0  0  0  0  0  0  0
   27.7900   28.2700   35.6200 N   0  0  0  0  0  0  0  0  0  0  0  0
   28.5400   28.3000   34.5100 C   0  0  0  0  0  0  0  0  0  0  0  0
   29.7700   28.9400   34.5600 C   0  0  0  0  0  0  0  0  0  0  0  0
   30.7000   28.8900   33.5000 C   0  0  0  0  0  0  0  0  0  0  0  0
   30.3700   28.1400   32.3700 C   0  0  0  0  0  0  0  0  0  0  0  0
   29.1200   27.5200   32.2800 C   0  0  0  0  0  0  0  0  0  0  0  0
   28.2100   27.6100   33.3300 C   0  0  0  0  0  0  0  0  0  0  0  0
   26.9700   26.9700   33.3100 C   0  0  0  0  0  0  0  0  0  0  0  0
   26.5300   26.2400   32.2200 N   0  0  0  0  0  0  0  0  0  0  0  0
   23.2078   25.2637   36.0529 C   0  0  0  0  0  0  0  0  0  0  0  0
   22.5039   25.4236   37.2165 N   0  0  0  0  0  0  0  0  0  0  0  0
   21.5666   24.5163   37.6131 C   0  0  0  0  0  0  0  0  0  0  0  0
   21.3351   23.4052   36.8095 C   0  0  0  0  0  0  0  0  0  0  0  0
   20.3769   22.2748   37.0170 C   0  0  0  0  0  0  0  0  0  0  0  0
   20.6725   21.6050   38.1916 F   0  0  0  0  0  0  0  0  0  0  0  0
   19.0771   22.7487   37.0551 F   0  0  0  0  0  0  0  0  0  0  0  0
   20.5962   21.3550   35.7836 C   0  0  0  0  0  0  0  0  0  0  0  0
   21.6589   22.0497   34.9927 C   0  0  0  0  0  0  0  0  0  0  0  0
   22.1389   21.6358   33.9049 O   0  0  0  0  0  0  0  0  0  0  0  0
   22.0509   23.2608   35.6597 C   0  0  0  0  0  0  0  0  0  0  0  0
   22.9820   24.1651   35.2703 N   0  0  0  0  0  0  0  0  0  0  0  0
  1  2  1  0
  2  3  2  0
  2  4  1  0
  4  5  2  0
  5  6  1  0
  6  7  2  0
  7  8  1  0
  8  9  2  0
  9 10  1  0
 10 11  2  0
 11 12  1  0
 12 13  2  0
 13 14  1  0
  1 15  1  0
 15 16  2  0
 16 17  1  0
 17 18  2  0
 18 19  1  0
 19 20  1  0
 19 21  1  0
 19 22  1  0
 22 23  1  0
 23 24  2  0
 23 25  1  0
 25 26  2  0
 13  4  1  0
 26 15  1  0
 12  7  1  0
 25 18  1  0
M  END
>  <AAScore>  (1) 
834.078759632773

>  <RootName>  (1) 
./4ZLY/04_DeltaGEst/trajectory_04/rank_00/lead_0058

$$$$
