confid_2
     RDKit          3D

 26 28  0  0  0  0  0  0  0  0999 V2000
   24.5500   26.3900   36.2500 N   0  0  0  0  0  0  0  0  0  0  0  0
   25.6000   26.1300   35.4000 C   0  0  0  0  0  0  0  0  0  0  0  0
   25.4300   25.4300   34.4200 O   0  0  0  0  0  0  0  0  0  0  0  0
   26.9800   26.6300   35.7100 C   0  0  0  0  0  0  0  0  0  0  0  0
   27.3200   26.8200   36.9800 N   0  0  0  0  0  0  0  0  0  0  0  0
   28.4700   27.4000   37.3100 N   0  0  0  0  0  0  0  0  0  0  0  0
   29.4000   27.6300   36.3700 C   0  0  0  0  0  0  0  0  0  0  0  0
   30.6600   28.0500   36.8000 C   0  0  0  0  0  0  0  0  0  0  0  0
   31.5700   28.3600   35.7800 C   0  0  0  0  0  0  0  0  0  0  0  0
   31.3700   28.1000   34.4300 C   0  0  0  0  0  0  0  0  0  0  0  0
   30.1200   27.5900   34.0500 C   0  0  0  0  0  0  0  0  0  0  0  0
   29.1500   27.3400   35.0300 C   0  0  0  0  0  0  0  0  0  0  0  0
   27.8800   26.8900   34.6600 C   0  0  0  0  0  0  0  0  0  0  0  0
   27.4800   26.6100   33.3700 N   0  0  0  0  0  0  0  0  0  0  0  0
   23.2065   25.9020   36.0867 C   0  0  0  0  0  0  0  0  0  0  0  0
   22.8715   25.0913   35.0460 N   0  0  0  0  0  0  0  0  0  0  0  0
   21.6019   24.6281   34.8889 C   0  0  0  0  0  0  0  0  0  0  0  0
   21.2700   23.7969   33.8152 O   0  0  0  0  0  0  0  0  0  0  0  0
   22.2192   23.3904   32.8365 C   0  0  0  0  0  0  0  0  0  0  0  0
   20.6188   24.9868   35.8105 C   0  0  0  0  0  0  0  0  0  0  0  0
   20.9708   25.8190   36.8789 C   0  0  0  0  0  0  0  0  0  0  0  0
   22.2542   26.2566   36.9907 N   0  0  0  0  0  0  0  0  0  0  0  0
   19.9430   26.2313   37.8915 C   0  0  0  0  0  0  0  0  0  0  0  0
   19.4053   25.1080   38.4929 F   0  0  0  0  0  0  0  0  0  0  0  0
   20.5140   27.0307   38.8664 F   0  0  0  0  0  0  0  0  0  0  0  0
   18.9336   26.9402   37.2661 F   0  0  0  0  0  0  0  0  0  0  0  0
  1  2  1  0
  2  3  2  0
  2  4  1  0
  4  5  2  0
  5  6  1  0
  6  7  2  0
  7  8  1  0
  8  9  2  0
  9 10  1  0
 10 11  2  0
 11 12  1  0
 12 13  2  0
 13 14  1  0
  1 15  1  0
 15 16  2  0
 16 17  1  0
 17 18  1  0
 18 19  1  0
 17 20  2  0
 20 21  1  0
 21 22  2  0
 21 23  1  0
 23 24  1  0
 23 25  1  0
 23 26  1  0
 13  4  1  0
 22 15  1  0
 12  7  1  0
M  END
>  <AAScore>  (1) 
833.1030799391584

>  <RootName>  (1) 
./4ZLY/04_DeltaGEst/trajectory_01/rank_00/lead_0318

$$$$
