confid_0
     RDKit          3D

 28 32  0  0  0  0  0  0  0  0999 V2000
   24.6900   26.1200   35.5300 N   0  0  0  0  0  0  0  0  0  0  0  0
   25.6600   25.6700   34.6600 C   0  0  0  0  0  0  0  0  0  0  0  0
   25.2400   25.0100   33.7200 O   0  0  0  0  0  0  0  0  0  0  0  0
   27.0300   26.2200   34.8800 C   0  0  0  0  0  0  0  0  0  0  0  0
   27.3500   26.7300   36.0700 N   0  0  0  0  0  0  0  0  0  0  0  0
   28.5700   27.1800   36.3300 N   0  0  0  0  0  0  0  0  0  0  0  0
   29.5300   27.1100   35.3900 C   0  0  0  0  0  0  0  0  0  0  0  0
   30.8300   27.5700   35.6500 C   0  0  0  0  0  0  0  0  0  0  0  0
   31.8500   27.5400   34.6900 C   0  0  0  0  0  0  0  0  0  0  0  0
   31.5100   27.1200   33.4000 C   0  0  0  0  0  0  0  0  0  0  0  0
   30.2200   26.6300   33.1100 C   0  0  0  0  0  0  0  0  0  0  0  0
   29.2400   26.6600   34.1000 C   0  0  0  0  0  0  0  0  0  0  0  0
   27.9300   26.2600   33.8100 C   0  0  0  0  0  0  0  0  0  0  0  0
   27.5200   25.7100   32.6100 N   0  0  0  0  0  0  0  0  0  0  0  0
   23.3998   25.5048   35.6660 C   0  0  0  0  0  0  0  0  0  0  0  0
   22.6673   25.2911   34.6050 N   0  0  0  0  0  0  0  0  0  0  0  0
   21.3760   24.6746   34.6275 C   0  0  0  0  0  0  0  0  0  0  0  0
   20.3938   25.2011   35.3463 C   0  0  0  0  0  0  0  0  0  0  0  0
   19.0503   24.8221   35.8935 C   0  0  0  0  0  0  0  0  0  0  0  0
   18.9102   25.9618   36.6830 O   0  0  0  0  0  0  0  0  0  0  0  0
   20.1092   26.4348   36.1571 C   0  0  1  0  0  0  0  0  0  0  0  0
   21.1575   26.7811   37.2335 C   0  0  0  0  0  0  0  0  0  0  0  0
   21.9337   25.5886   37.7458 C   0  0  0  0  0  0  0  0  0  0  0  0
   22.9980   25.0137   37.0080 C   0  0  0  0  0  0  0  0  0  0  0  0
   23.6766   23.9552   37.5298 N   0  0  0  0  0  0  0  0  0  0  0  0
   23.3617   23.4131   38.7349 C   0  0  0  0  0  0  0  0  0  0  0  0
   22.2945   23.9245   39.4723 C   0  0  0  0  0  0  0  0  0  0  0  0
   21.5890   25.0218   38.9825 C   0  0  0  0  0  0  0  0  0  0  0  0
  1  2  1  0
  2  3  2  0
  2  4  1  0
  4  5  2  0
  5  6  1  0
  6  7  2  0
  7  8  1  0
  8  9  2  0
  9 10  1  0
 10 11  2  0
 11 12  1  0
 12 13  2  0
 13 14  1  0
  1 15  1  0
 15 16  2  0
 16 17  1  0
 17 18  2  0
 18 19  1  0
 19 20  1  0
 20 21  1  0
 21 22  1  1
 22 23  1  0
 23 24  2  0
 24 25  1  0
 25 26  2  0
 26 27  1  0
 27 28  2  0
 13  4  1  0
 24 15  1  0
 12  7  1  0
 21 18  1  0
 28 23  1  0
M  END
>  <AAScore>  (1) 
66494.06243463217

>  <RootName>  (1) 
./4ZLY/04_DeltaGEst/trajectory_02/rank_00/lead_0031

$$$$
