confid_16
     RDKit          3D

 27 30  0  0  0  0  0  0  0  0999 V2000
   24.5700   26.8800   35.5900 N   0  0  0  0  0  0  0  0  0  0  0  0
   25.5000   26.4000   34.6900 C   0  0  0  0  0  0  0  0  0  0  0  0
   25.1700   25.5200   33.9100 O   0  0  0  0  0  0  0  0  0  0  0  0
   26.8400   27.0200   34.7400 C   0  0  0  0  0  0  0  0  0  0  0  0
   27.3800   27.2800   35.9400 N   0  0  0  0  0  0  0  0  0  0  0  0
   28.6200   27.7400   36.0300 N   0  0  0  0  0  0  0  0  0  0  0  0
   29.3800   28.0000   34.9600 C   0  0  0  0  0  0  0  0  0  0  0  0
   30.6700   28.5000   35.1300 C   0  0  0  0  0  0  0  0  0  0  0  0
   31.5400   28.6100   34.0300 C   0  0  0  0  0  0  0  0  0  0  0  0
   31.0900   28.2200   32.7700 C   0  0  0  0  0  0  0  0  0  0  0  0
   29.8000   27.7000   32.6000 C   0  0  0  0  0  0  0  0  0  0  0  0
   28.9600   27.5500   33.7100 C   0  0  0  0  0  0  0  0  0  0  0  0
   27.6600   27.0300   33.5900 C   0  0  0  0  0  0  0  0  0  0  0  0
   27.1600   26.7400   32.3400 N   0  0  0  0  0  0  0  0  0  0  0  0
   23.3104   26.2537   35.8902 C   0  0  0  0  0  0  0  0  0  0  0  0
   23.0097   24.9918   35.3877 N   0  0  0  0  0  0  0  0  0  0  0  0
   21.8315   24.3347   35.6491 C   0  0  0  0  0  0  0  0  0  0  0  0
   20.9455   25.0027   36.4563 C   0  0  0  0  0  0  0  0  0  0  0  0
   19.7049   25.1179   37.1605 C   0  0  0  0  0  0  0  0  0  0  0  0
   20.0077   26.4013   37.6784 N   0  0  0  0  0  0  0  0  0  0  0  0
   19.3773   27.3621   38.5254 C   0  0  0  0  0  0  0  0  0  0  0  0
   18.2582   27.0932   39.0398 O   0  0  0  0  0  0  0  0  0  0  0  0
   20.0729   28.6579   38.8525 C   0  0  0  0  0  0  0  0  0  0  0  0
   19.0937   29.8369   38.8193 C   0  0  0  0  0  0  0  0  0  0  0  0
   20.7599   28.5551   40.2162 C   0  0  0  0  0  0  0  0  0  0  0  0
   21.2705   26.2640   36.9511 C   0  0  0  0  0  0  0  0  0  0  0  0
   22.4187   26.9178   36.7043 N   0  0  0  0  0  0  0  0  0  0  0  0
  1  2  1  0
  2  3  2  0
  2  4  1  0
  4  5  2  0
  5  6  1  0
  6  7  2  0
  7  8  1  0
  8  9  2  0
  9 10  1  0
 10 11  2  0
 11 12  1  0
 12 13  2  0
 13 14  1  0
  1 15  1  0
 15 16  2  0
 16 17  1  0
 17 18  2  0
 18 19  1  0
 19 20  1  0
 20 21  1  0
 21 22  2  0
 21 23  1  0
 23 24  1  0
 23 25  1  0
 20 26  1  0
 26 27  2  0
 13  4  1  0
 27 15  1  0
 12  7  1  0
 26 18  1  0
M  END
>  <AAScore>  (1) 
29533.03747092572

>  <RootName>  (1) 
./4ZLY/04_DeltaGEst/trajectory_05/rank_00/lead_0469

$$$$
