confid_6
     RDKit          3D

 28 31  0  0  0  0  0  0  0  0999 V2000
   24.6900   26.1200   35.5300 N   0  0  0  0  0  0  0  0  0  0  0  0
   25.6600   25.6700   34.6600 C   0  0  0  0  0  0  0  0  0  0  0  0
   25.2400   25.0100   33.7200 O   0  0  0  0  0  0  0  0  0  0  0  0
   27.0300   26.2200   34.8800 C   0  0  0  0  0  0  0  0  0  0  0  0
   27.3500   26.7300   36.0700 N   0  0  0  0  0  0  0  0  0  0  0  0
   28.5700   27.1800   36.3300 N   0  0  0  0  0  0  0  0  0  0  0  0
   29.5300   27.1100   35.3900 C   0  0  0  0  0  0  0  0  0  0  0  0
   30.8300   27.5700   35.6500 C   0  0  0  0  0  0  0  0  0  0  0  0
   31.8500   27.5400   34.6900 C   0  0  0  0  0  0  0  0  0  0  0  0
   31.5100   27.1200   33.4000 C   0  0  0  0  0  0  0  0  0  0  0  0
   30.2200   26.6300   33.1100 C   0  0  0  0  0  0  0  0  0  0  0  0
   29.2400   26.6600   34.1000 C   0  0  0  0  0  0  0  0  0  0  0  0
   27.9300   26.2600   33.8100 C   0  0  0  0  0  0  0  0  0  0  0  0
   27.5200   25.7100   32.6100 N   0  0  0  0  0  0  0  0  0  0  0  0
   31.1467   28.0608   36.9658 N   0  0  0  0  0  0  0  0  0  0  0  0
   31.1827   27.1429   38.0992 C   0  0  0  0  0  0  0  0  0  0  0  0
   30.4462   27.7745   39.2718 C   0  0  0  0  0  0  0  0  0  0  0  0
   30.8824   29.2060   39.5266 C   0  0  0  0  0  0  0  0  0  0  0  0
   30.6132   29.8030   40.7804 C   0  0  0  0  0  0  0  0  0  0  0  0
   29.9593   29.0743   41.8426 C   0  0  0  0  0  0  0  0  0  0  0  0
   29.4352   28.4907   42.6935 N   0  0  0  0  0  0  0  0  0  0  0  0
   30.9660   31.1323   41.0150 C   0  0  0  0  0  0  0  0  0  0  0  0
   31.5741   31.8870   40.0190 C   0  0  0  0  0  0  0  0  0  0  0  0
   31.8436   31.3332   38.7597 C   0  0  0  0  0  0  0  0  0  0  0  0
   31.4713   29.9874   38.4916 C   0  0  0  0  0  0  0  0  0  0  0  0
   31.7610   29.3792   37.1288 C   0  0  0  0  0  0  0  0  0  0  0  0
   32.4768   32.2292   37.7157 C   0  0  0  0  0  0  0  0  0  0  0  0
   31.4144   33.0323   36.9703 C   0  0  0  0  0  0  0  0  0  0  0  0
  1  2  1  0
  2  3  2  0
  2  4  1  0
  4  5  2  0
  5  6  1  0
  6  7  2  0
  7  8  1  0
  8  9  2  0
  9 10  1  0
 10 11  2  0
 11 12  1  0
 12 13  2  0
 13 14  1  0
  8 15  1  0
 15 16  1  0
 16 17  1  0
 17 18  1  0
 18 19  2  0
 19 20  1  0
 20 21  3  0
 19 22  1  0
 22 23  2  0
 23 24  1  0
 24 25  2  0
 25 26  1  0
 24 27  1  0
 27 28  1  0
 13  4  1  0
 26 15  1  0
 12  7  1  0
 25 18  1  0
M  END
>  <AAScore>  (1) 
-7.572567670442438

>  <RootName>  (1) 
./4ZLY/04_DeltaGEst/trajectory_02/rank_01/lead_0245

$$$$
